45
C=CC1=C(C(=O)O)N2C(=O)[C@@H](NC(=O)/C(=N\OCC(=O)O)c3csc(N)n3)[C@H]2SC1
C       5.72304449      1.66944626     -1.29981532
C       4.79213050      1.59704284     -0.33840794
C       3.73447723      0.58671884     -0.21324899
C       2.97393185      0.47591229      0.90393795
C       3.06896135      1.45650675      2.01558881
O       2.69974821      2.61929266      1.97061609
O       3.59650112      0.89347814      3.11565157
N       2.03204471     -0.49374248      1.04617577
C       0.94693853     -0.65912036      1.83249706
O       0.57822689     -0.07765285      2.82464815
C       0.39810092     -1.75172667      0.83424577
N      -0.80116933     -1.32817925      0.05763289
C      -2.05672873     -1.37440397      0.63244223
O      -2.33511509     -1.96751570      1.66361052
C      -3.11368988     -0.56165819     -0.10916129
N      -3.07089974      0.74380814     -0.16343191
O      -1.96002169      1.24594917      0.53682673
C      -2.03630399      2.66554148      0.59820285
C      -0.76627204      3.23046806      1.19612899
O      -0.70258857      4.15906659      1.98772361
O       0.35324027      2.64499847      0.72069429
C      -4.19421444     -1.24407898     -0.81006367
C      -5.28779379     -0.61512318     -1.38031223
S      -6.32115864     -1.76828685     -2.11029334
C      -5.24474522     -3.01661375     -1.63937886
N      -5.49602989     -4.30495768     -1.92345206
N      -4.18420533     -2.62548727     -0.98028440
C       1.78616126     -1.58373163      0.13782746
S       1.79389268     -0.94067648     -1.55508383
C       3.50155657     -0.30653320     -1.42551167
H       5.80461992      0.96374136     -2.11866039
H       6.46123865      2.46765154     -1.27918708
H       4.84871004      2.36446908      0.43424621
H       3.49826424      1.57195375      3.81552243
H       0.25989290     -2.73673911      1.29410129
H      -0.67984228     -0.64938970     -0.69153167
H      -2.87937110      2.94770518      1.23700861
H      -2.16648304      3.08979751     -0.40301295
H       1.09764452      3.03304920      1.24690409
H      -5.52311550      0.44000414     -1.39465940
H      -6.46570288     -4.56135817     -2.06378371
H      -4.98420932     -4.96933092     -1.35228341
H       2.46144567     -2.43192799      0.30198988
H       4.20326008     -1.14815752     -1.41314384
H       3.65562789      0.24979048     -2.35557768
