54
CCCCc1ncc(/C=C(\Cc2cccs2)C(=O)O)n1Cc1ccc(C(=O)O)cc1
C       1.69465788      5.25361487     -1.81383281
C       0.82428923      4.08443629     -2.24637477
C       0.22336832      3.30326299     -1.07642024
C       1.27366702      2.60013220     -0.21345776
C       0.63098376      1.76119693      0.84599090
N       0.35531048      2.18865504      2.06254702
C      -0.24134315      1.14138823      2.70574815
C      -0.36201577      0.05269173      1.87200203
C      -0.91865077     -1.23728880      2.02307999
C      -2.24934262     -1.45052043      2.00671623
C      -3.32522604     -0.40061585      1.87362006
C      -3.53424972      0.12868050      0.47712095
C      -3.20853028      1.37717293     -0.01720608
C      -3.55363797      1.52411679     -1.39088274
C      -4.13774347      0.38570445     -1.89884765
S      -4.26720484     -0.84968154     -0.72408181
C      -2.64949946     -2.86942076      2.09246362
O      -1.98625817     -3.82658309      1.73322415
O      -3.86146692     -3.03528215      2.64261229
N       0.23443488      0.44492024      0.68744242
C       0.32659604     -0.34193538     -0.53930498
C       1.36377780     -1.43770587     -0.44949299
C       0.98163485     -2.77975912     -0.60595532
C       1.92750458     -3.80614808     -0.52725714
C       3.27335472     -3.50372398     -0.29834423
C       4.31304839     -4.55637791     -0.20208437
O       5.49660640     -4.37159833      0.01392078
O       3.82215163     -5.79522826     -0.38320964
C       3.66435160     -2.16865756     -0.14922387
C       2.71733059     -1.14339327     -0.22679446
H       2.01473989      5.82695836     -2.68957145
H       2.59531194      4.91261702     -1.29474185
H       1.14530850      5.92811435     -1.14947476
H       0.00392065      4.47035100     -2.86326515
H       1.40853949      3.41015980     -2.88296804
H      -0.37991399      3.97700076     -0.45455547
H      -0.47185569      2.56081789     -1.48693744
H       1.90562603      3.34593013      0.28303556
H       1.94315895      1.99700581     -0.83548748
H      -0.56768931      1.22850517      3.73381661
H      -0.22228918     -2.07040070      2.11341619
H      -4.28979888     -0.76000017      2.25238048
H      -3.08750816      0.44113375      2.53801862
H      -2.73902747      2.15085534      0.58186595
H      -3.38736187      2.42174369     -1.97334520
H      -4.50062904      0.21910491     -2.90413252
H      -3.99098682     -4.00678754      2.64040940
H       0.56164265      0.31559166     -1.38113979
H      -0.67191386     -0.74908205     -0.73614364
H      -0.06228668     -3.04333975     -0.77418541
H       1.59996778     -4.83712611     -0.63901547
H       4.60642606     -6.37490570     -0.28487823
H       4.70869742     -1.92097154      0.03296148
H       3.05002258     -0.11532891     -0.09978010
