21
CC1=CC(=O)c2ccccc2C1=O
C      -3.37329747      0.04218770     -0.41147707
C      -1.90076934      0.29815551     -0.32381843
C      -1.34321513      1.47068997     -0.65112800
C       0.10902420      1.71415433     -0.56167025
O       0.57199126      2.80392725     -0.87238447
C       0.96293989      0.60967022     -0.09091223
C       2.34738282      0.79965893      0.00848325
C       3.16397633     -0.24118331      0.45351554
C       2.60208590     -1.46997716      0.79917144
C       1.22241763     -1.66043102      0.70049406
C       0.39971512     -0.61751838      0.25404862
C      -1.05855078     -0.83161403      0.15403661
O      -1.55677213     -1.90943794      0.45659307
H      -3.57943896     -0.78081285     -1.10368945
H      -3.91916400      0.92130543     -0.77041355
H      -3.77685393     -0.21909121      0.57232022
H      -1.93279750      2.31100421     -1.00221143
H       2.79204522      1.75657511     -0.25985953
H       4.23899505     -0.09302374      0.53048360
H       3.23841273     -2.28136366      1.14606615
H       0.79187309     -2.62287537      0.97235186
