21
Cc1ncc(CO)c(C=O)c1O
C       2.74630659     -1.24456079      1.22197348
C       1.49211619     -0.83598991      0.50664609
N       0.98408570     -1.71915872     -0.38776578
C      -0.14334723     -1.37273369     -1.04394917
C      -0.82400788     -0.17367659     -0.86388762
C      -2.06812349      0.08598755     -1.65487972
O      -3.17297309      0.22796855     -0.77622576
C      -0.27935456      0.72832069      0.06386116
C      -0.92645303      2.03716914      0.31692408
O      -0.43874419      2.83025685      1.11958668
C       0.89253659      0.39463614      0.75919989
O       1.47566309      1.22805824      1.67767856
H       2.57398015     -1.28032489      2.30218952
H       3.55459710     -0.53890921      1.00620689
H       3.07109601     -2.23906890      0.89887204
H      -0.49336287     -2.12638723     -1.74662006
H      -2.29008594     -0.72729767     -2.35423505
H      -1.96078063      1.00116923     -2.24641218
H      -3.28493984     -0.61601088     -0.30300348
H      -1.84530427      2.29012212     -0.23294038
H       0.93709561      2.05042997      1.73678083
