16
CSc1ccccc1
C       2.87074257     -0.04733771     -0.12549058
S       1.69805323     -0.79526398     -1.28752461
C       0.16050010     -0.33692450     -0.50767822
C      -0.17001497      1.00054179     -0.26721015
C      -1.38665039      1.32932600      0.33554797
C      -2.28267232      0.32351862      0.69362911
C      -1.96621405     -1.01060791      0.44403148
C      -0.75005420     -1.33934424     -0.15910696
H       2.68155708     -0.40054977      0.89200887
H       3.88636529     -0.33617801     -0.40929404
H       2.80479459      1.04337250     -0.15126258
H       0.50688953      1.79950695     -0.55741231
H      -1.63736249      2.37096651      0.51883981
H      -3.23049317      0.57955940      1.16020984
H      -2.66660984     -1.79638721      0.71489478
H      -0.51883093     -2.38419843     -0.35268669
