34
CCN(CC)c1ccc2c(C)cc(=O)oc2c1
C       3.19955083      1.82841249      1.01811466
C       2.93984105      0.32869539      1.01022370
N       2.12243080     -0.05965583     -0.14814605
C       2.86909213     -0.45489064     -1.35000445
C       3.10847265     -1.95776712     -1.37475861
C       0.73249208     -0.04758416     -0.10783867
C      -0.05609547     -0.53576693     -1.16568594
C      -1.46364405     -0.53002178     -1.13776855
C      -2.15279887     -0.02855947     -0.03688308
C      -3.61630713      0.01274008      0.06793669
C      -4.46841088     -0.50571015     -1.05194245
C      -4.15751585      0.52300380      1.18382771
C      -3.36128902      1.04272746      2.30653488
O      -3.91002866      1.49862872      3.30338416
O      -1.98520853      0.98857414      2.17575373
C      -1.38621523      0.45707181      1.01535590
C       0.01575230      0.45125483      0.98995083
H       3.71716540      2.14264120      0.10573611
H       3.82665924      2.09842910      1.87351592
H       2.26986680      2.40138045      1.08518937
H       3.90673400     -0.18919169      0.96901059
H       2.48979435      0.00295525      1.95466219
H       3.84344806      0.05033737     -1.36192932
H       2.37143466     -0.12137813     -2.26743406
H       2.16906314     -2.51846053     -1.39057813
H       3.67211172     -2.28065960     -0.49318477
H       3.68324670     -2.23394209     -2.26427807
H       0.40444124     -0.95378146     -2.05600442
H      -1.99047135     -0.93030122     -1.99967417
H      -4.27844744      0.05149056     -1.97547662
H      -5.53686844     -0.40830066     -0.82908054
H      -4.27090329     -1.56789043     -1.23149582
H      -5.23043769      0.58368617      1.32661271
H       0.52304476      0.86183308      1.85635457
