13
Oc1ccc(Cl)c(Cl)c1
O       2.54872785      0.20631660      0.06790896
C       1.19165283      0.08838074      0.02838364
C       0.57917557     -1.06586971     -0.44830627
C      -0.81525173     -1.14122160     -0.46982156
C      -1.58701375     -0.06522032     -0.01592787
Cl     -3.30594586     -0.23078743     -0.07274010
C      -0.95826531      1.09130310      0.46159453
Cl     -1.84642214      2.45727067      1.03715723
C       0.43665299      1.16507227      0.48244731
H       2.95136573     -0.60910107     -0.27477576
H       1.16335962     -1.90945833     -0.80401137
H      -1.29727268     -2.04239538     -0.84196542
H       0.93923689      2.05571048      0.85005668
