20
CN(C)C(=O)N(C)C
C      -2.18358104     -1.29104110      0.14134332
N      -1.13596363     -0.32661142     -0.14017411
C      -1.60113941      1.02324584     -0.42724297
C       0.08110751     -0.52672893      0.50562290
O       0.20643082     -1.34060550      1.42095588
N       1.14829401      0.24653750      0.05669581
C       2.34658996      0.23242843      0.87569891
C       1.37873733      0.42107874     -1.37065950
H      -2.64595734     -1.05207613      1.10411620
H      -1.76733016     -2.30224720      0.18755399
H      -2.93404440     -1.25397092     -0.65343634
H      -0.78410923      1.73948260     -0.53411539
H      -2.22795276      1.36096911      0.40473595
H      -2.19287371      1.00520813     -1.34671551
H       2.08203303      0.25849954      1.93742743
H       2.95623075      1.10989136      0.64194308
H       2.91293693     -0.68174239      0.67230216
H       2.07302600     -0.35486812     -1.70979181
H       1.82148611      1.40668276     -1.53936799
H       0.46607923      0.32586771     -1.96222096
