16
OCc1c(Cl)c(Cl)c(Cl)c(Cl)c1Cl
O       2.56731724     -0.40160031     -0.91822160
C       2.01121109     -0.20122781      0.37053790
C       0.51932647     -0.04040447      0.20675553
C      -0.33545153     -1.16613687      0.21737604
Cl      0.33745477     -2.75486860      0.47102788
C      -1.72466584     -1.02328092      0.02276557
Cl     -2.76070191     -2.42552675      0.05813862
C      -2.27500171      0.25073806     -0.19692842
Cl     -3.99345543      0.43128685     -0.43074754
C      -1.43825550      1.37910044     -0.22715430
Cl     -2.11852063      2.96102678     -0.50222559
C      -0.04962723      1.23132788     -0.03203290
Cl      0.98031885      2.63741081     -0.08993308
H       3.52748520     -0.50386911     -0.80091835
H       2.47857921      0.67105661      0.83651443
H       2.27398694     -1.04503259      1.01504579
