19
CN1C(=O)OC(C)(C)C1=O
C       2.76108297      0.00262034      0.01138353
N       1.34253973     -0.08070094      0.24654343
C       0.78205513     -0.24380685      1.46348791
O       1.37101625     -0.38635322      2.52304541
O      -0.57847802     -0.21159621      1.36779407
C      -0.94749033      0.00041360     -0.00307096
C      -1.69139040     -1.22439659     -0.51412596
C      -1.77071592      1.27431448     -0.11036160
C       0.38968694      0.14921165     -0.68908443
O       0.56518060      0.42978356     -1.86501730
H       3.08273919      1.02973619      0.20830787
H       2.98916675     -0.24962102     -1.02772251
H       3.29403888     -0.67046484      0.68869705
H      -1.07670982     -2.12703736     -0.41798883
H      -2.60087233     -1.39993882      0.07089084
H      -1.96732101     -1.11606461     -1.56822007
H      -2.68089397      1.20233207      0.49510312
H      -1.20930884      2.13692164      0.26716173
H      -2.05432581      1.48464692     -1.14682331
