18
Nc1ccc([N+](=O)[O-])c(N)c1
N      -2.99270573     -0.21593807      0.35203619
C      -1.62411629     -0.23319511      0.06240330
C      -1.02117911     -1.40295523     -0.40025810
C       0.35829786     -1.45491342     -0.60187736
C       1.15057275     -0.34177666     -0.27858425
N       2.59138701     -0.44026592     -0.51610262
O       2.97020241     -1.17048827     -1.44439169
O       3.35049784      0.19183483      0.23637092
C       0.58784831      0.81217397      0.29710402
N       1.30219540      2.00227374      0.53260428
C      -0.81113306      0.84752182      0.43312782
H      -3.54487990     -0.86162752     -0.20457617
H      -3.40140942      0.71366280      0.37570451
H      -1.62404634     -2.27968651     -0.62440146
H       0.80190595     -2.36435117     -1.00193038
H       2.29893610      1.84808782      0.71167095
H       0.88847414      2.60651403      1.23702763
H      -1.28084792      1.74312885      0.83407241
