21
Cc1ccc2nc3sc(=O)sc3nc2c1
C      -3.68305480      0.76841812     -0.02594543
C      -2.30587281      0.17432762     -0.00262401
C      -2.12446868     -1.20598681     -0.08002908
C      -0.83518121     -1.74264301     -0.08892544
C       0.28707953     -0.92862622     -0.03279354
N       1.51351029     -1.49028823     -0.04400473
C       2.55147312     -0.63170874      0.00876777
S       4.21416588     -1.22843630      0.00146928
C       4.96346507      0.36038087      0.08384017
O       6.17598808      0.50908270      0.10544162
S       3.85015061      1.72078400      0.13297051
C       2.38214444      0.74012215      0.06996347
N       1.16632435      1.32244435      0.08199384
C       0.11243018      0.48174655      0.03119793
C      -1.17603642      1.00194243      0.03962540
H      -3.71510514      1.70115672      0.54690253
H      -4.41102221      0.08563387      0.42470139
H      -3.98378085      0.97529659     -1.05757481
H      -2.98082211     -1.87553481     -0.13284516
H      -0.70413600     -2.82110973     -0.14381035
H      -1.29725132      2.08299787      0.08167862
