52
O=C1c2ccccc2-c2ccc3c4ccc5c6c(ccc(c7ccc1c2c73)c64)C(=O)c1ccccc1-5
O      -5.44721461      0.78803772      2.98381752
C      -4.92630865      0.50139555      1.91062310
C      -5.75889181      0.16513664      0.73984706
C      -7.15624250      0.18110126      0.88323742
C      -7.97150853     -0.13022455     -0.19799828
C      -7.39030910     -0.45582674     -1.41642532
C      -5.99554319     -0.47000555     -1.55317932
C      -5.13815355     -0.15956998     -0.47774214
C      -3.65374795     -0.16244756     -0.57891622
C      -2.99408725     -0.47834611     -1.76688888
C      -1.60144684     -0.47783863     -1.85013842
C      -0.76775944     -0.16294954     -0.75707356
C       0.66618120     -0.16375349     -0.84763147
C       1.35538633     -0.47950495     -2.03686957
C       2.74743295     -0.48158471     -2.12947103
C       3.55164442     -0.16650674     -1.03394096
C       2.89669051      0.15658160      0.17988646
C       3.64869498      0.48240994      1.31767877
C       3.03230474      0.80312154      2.52049930
C       1.64596925      0.80356922      2.60682901
C       0.81488267      0.48689414      1.50714343
C      -0.61832750      0.48770390      1.59764707
C      -1.30411804      0.80522977      2.79312116
C      -2.69030158      0.80634797      2.88188395
C      -3.45347379      0.48641261      1.76618709
C      -2.85093937      0.15982128      0.54285424
C      -1.41043978      0.16164862      0.46145513
C       1.45740317      0.16003036      0.28035035
C       5.12801210      0.49572518      1.27568586
O       5.78010640      0.78170698      2.27480535
C       5.80632347      0.15861862      0.00950070
C       7.21062689      0.17301014     -0.02403449
C       7.88304692     -0.13915416     -1.19921743
C       7.15282642     -0.46401254     -2.33482840
C       5.75192521     -0.47662176     -2.29503266
C       5.03698402     -0.16529691     -1.12030573
H      -7.60645709      0.43703446      1.84056446
H      -9.05275768     -0.11836910     -0.08885226
H      -8.02022697     -0.70100685     -2.26868733
H      -5.60779856     -0.73310842     -2.53272630
H      -3.53531559     -0.73659115     -2.67203560
H      -1.18976111     -0.73815904     -2.82105747
H       0.82454203     -0.73929637     -2.94826867
H       3.17021271     -0.74036792     -3.09549251
H       3.62503700      1.05467237      3.39818610
H       1.23590973      1.06403731      3.57818787
H      -0.77481794      1.06516863      3.70515249
H      -3.16762272      1.05850413      3.82714918
H       7.77798411      0.42836599      0.86903182
H       8.96944778     -0.12851847     -1.22696263
H       7.67025248     -0.70983778     -3.25954446
H       5.24374370     -0.73921431     -3.21800376
