26
COC(C)COC(C)CO
C       2.50189163     -0.73381175      0.25352867
O       2.24622580     -0.51680674     -1.12762636
C       1.28321644      0.51897588     -1.38202419
C       1.33823712      0.78427684     -2.88332479
C      -0.14124399      0.10489606     -0.96978806
O      -0.30703036      0.29216520      0.44328386
C      -1.61296215     -0.08408059      0.91605101
C      -1.71086373     -1.59412920      1.09526014
C      -1.81657557      0.62588707      2.26050787
O      -1.72595782      2.03850561      2.07201364
H       1.67058003     -1.26843432      0.71961156
H       2.69582466      0.20866217      0.77425746
H       3.39192062     -1.36384598      0.33729987
H       1.59111435      1.42669139     -0.84848838
H       1.06910665     -0.11381829     -3.45052027
H       0.66327245      1.59643106     -3.17018645
H       2.35550542      1.05536407     -3.18650068
H      -0.87892190      0.73351705     -1.48107345
H      -0.31235715     -0.94495599     -1.22757443
H      -2.36973085      0.27634223      0.20851858
H      -2.66537401     -1.87710337      1.54995309
H      -1.62934501     -2.11339590      0.13575673
H      -0.89591154     -1.96630897      1.72567991
H      -1.04192871      0.34210863      2.98078141
H      -2.79822566      0.39975612      2.68715998
H      -0.90046675      2.17311171      1.56744327
