47
CCc1nn(C)c(C(=O)NCc2ccc(C(C)(C)C)cc2)c1Cl
C       6.68196745      1.33386723      0.92678367
C       5.55501081      0.55682926      1.59017373
C       4.66562151     -0.11340380      0.59634456
N       4.89863385     -1.38190870      0.24680034
N       3.92724793     -1.66247470     -0.64445421
C       3.89201352     -2.98713753     -1.22635934
C       3.06843544     -0.61308645     -0.89426609
C       1.95668084     -0.69025488     -1.81746697
O       1.67363678     -1.71259165     -2.43659413
N       1.22281688      0.46171565     -1.96526381
C      -0.00596743      0.50670527     -2.72193771
C      -1.19575710      0.42419435     -1.80331613
C      -1.67075900     -0.81707275     -1.36950771
C      -2.75908301     -0.90208957     -0.49311366
C      -3.40440440      0.24989060     -0.01636996
C      -4.60217384      0.19303982      0.94786609
C      -5.82553139      0.87455131      0.29743874
C      -5.02923415     -1.24225457      1.33017420
C      -4.24825976      0.92833199      2.25858294
C      -2.90765083      1.49257569     -0.45475269
C      -1.81991733      1.58086498     -1.33006869
C       3.53973229      0.40866731     -0.08522937
Cl      2.94228236      1.99151034      0.10451873
H       7.31138176      0.67523025      0.31865584
H       7.31544433      1.80506492      1.68489385
H       6.29151271      2.12116832      0.27329071
H       4.96654314      1.23414560      2.21992138
H       5.98597112     -0.19244746      2.26586358
H       4.00435177     -2.89500316     -2.30915272
H       2.94327433     -3.45887689     -0.96005660
H       4.71788737     -3.58170551     -0.82560055
H       1.41355055      1.23947205     -1.34864455
H      -0.01490203      1.45438399     -3.27179558
H      -0.04021907     -0.29765059     -3.46512331
H      -1.19007599     -1.73336909     -1.70987654
H      -3.07982981     -1.89672306     -0.19596719
H      -5.64879827      1.93613148      0.09270747
H      -6.08489378      0.39470834     -0.65375525
H      -6.70405147      0.81662805      0.95071804
H      -5.32959138     -1.82191605      0.44951614
H      -4.22057712     -1.78285212      1.83574180
H      -5.88553151     -1.23040024      2.01524546
H      -5.07360767      0.87309152      2.97806754
H      -4.03773265      1.99076297      2.09408384
H      -3.36305145      0.48698364      2.73178207
H      -3.36471979      2.41964198     -0.11493794
H      -1.46767654      2.56306189     -1.63674260
