14
c1ccc2n[nH]nc2c1
C      -1.74367199     -0.71432149      0.07165812
C      -1.74861121      0.70578778     -0.00213254
C      -0.57410242      1.48124530     -0.06571463
C       0.61699806      0.73497835     -0.05044652
N       1.89089932      1.15763091     -0.09763723
N       2.57112181      0.00628283     -0.05118568
N       1.89892004     -1.14836994      0.02219117
C       0.62210030     -0.73195049      0.02577889
C      -0.56378885     -1.48402592      0.08836661
H      -2.70167784     -1.23333577      0.11761309
H      -2.71021111      1.22011125     -0.00986987
H      -0.58178133      2.56118495     -0.12175402
H       3.58776050      0.00876711     -0.07142684
H      -0.56395529     -2.56398489      0.14455944
