25
CCCCC(C=O)CC
C       3.79131576     -0.00091253     -0.30194855
C       2.39331318      0.45024551     -0.69386307
C       1.33484106     -0.12246254      0.24932320
C      -0.07263298      0.33733642     -0.15020346
C      -1.15097127     -0.19718469      0.80300900
C      -1.31726905     -1.69378367      0.63115629
O      -1.33555564     -2.48055327      1.57313302
C      -2.51279745      0.49427610      0.62570193
C      -3.06598866      0.49065414     -0.79399257
H       3.87602073     -1.09172656     -0.33781262
H       4.53198386      0.42005998     -0.98904268
H       4.04082389      0.33028827      0.71115599
H       2.18757761      0.13105542     -1.72219961
H       2.35192562      1.54557561     -0.67940066
H       1.54795351      0.19829930      1.27629908
H       1.38954118     -1.21737816      0.23433626
H      -0.09943069      1.43417736     -0.14791113
H      -0.27284178      0.00944409     -1.17781160
H      -0.82766325     -0.02724145      1.83844832
H      -1.46075281     -2.05276666     -0.40248964
H      -2.42568434      1.53603866      0.95846098
H      -3.24886485      0.01667471      1.28475353
H      -4.05018490      0.97046390     -0.81030127
H      -2.41866168      1.04634282     -1.47874163
H      -3.18599705     -0.52692277     -1.17672913
