10
CC[N+](=O)[O-]
C      -1.03128896     -0.16155709      0.45063241
C       0.12187178     -0.35860844     -0.51069267
N       1.23884603      0.55284710     -0.10680769
O       2.06539053      0.10771146      0.69910312
O       1.24880424      1.68581339     -0.60390116
H      -0.73718560     -0.39475434      1.47975903
H      -1.39284422      0.87235045      0.43353130
H      -1.86518679     -0.81659763      0.17989560
H      -0.15482634     -0.10465143     -1.53833119
H       0.50641931     -1.38255347     -0.48318877
