6
N#CN.[Ca+2]
N       1.86318752     -0.09772050     -0.73255370
C       0.73660027      0.00238257     -0.49645209
N      -0.56115345      0.10566322     -0.20700564
Ca      0.00000000      0.00000000      0.00000000
H      -0.85856550      0.68428735      0.58381905
H      -1.18006884     -0.69461263     -0.36564303
