14
CC(=O)C(C)O
C       1.77802092     -0.12442662     -0.17475954
C       0.66772994      0.57391977      0.56328296
O       0.88885850      1.24601875      1.57459138
C      -0.75151463      0.46094172     -0.00265500
C      -1.19503086     -0.98183343     -0.16145863
O      -1.68107184      1.11399470      0.86007658
H       1.70732390     -1.20302608     -0.01815697
H       1.71656315      0.10969414     -1.24046669
H       2.74343259      0.22600007      0.20121460
H      -0.77402648      0.98093004     -0.96562994
H      -2.24071796     -1.03103709     -0.48362124
H      -1.12957395     -1.51674532      0.79277561
H      -0.58189086     -1.51593685     -0.89339429
H      -1.14810241      1.66150619      1.47362599
