24
COC(=O)c1cccc(C(=O)OC)c1
C       3.48109743      2.15439816     -0.03220167
O       2.29809108      1.35463998     -0.07230618
C       2.52751384      0.04489782     -0.33794940
O       3.61973810     -0.46393092     -0.53371732
C       1.24959537     -0.71894434     -0.36260139
C       1.31067502     -2.09496590     -0.62509559
C       0.14448903     -2.85958219     -0.66020538
C      -1.09097671     -2.25307333     -0.43297857
C      -1.16889557     -0.87816050     -0.16913701
C      -2.51527523     -0.28708404      0.06544434
O      -3.54900734     -0.93586837      0.03972932
O      -2.41929313      1.04407649      0.30507467
C      -3.67500889      1.68328248      0.54027538
C       0.00565141     -0.11182994     -0.13447824
H       3.98781112      2.13826937     -1.00223811
H       4.15057896      1.80903322      0.76184240
H       3.18613036      3.18423983      0.18721897
H       2.27086308     -2.57728556     -0.80373763
H       0.19840348     -3.92660884     -0.86435915
H      -1.99621878     -2.85819936     -0.46239806
H      -4.15961302      1.26189994      1.42660739
H      -4.32238943      1.59122159     -0.33745594
H      -3.48572807      2.74499295      0.72101432
H      -0.04823211      0.95458146      0.06955889
