15
C=C(C)CC
C      -1.20095016      1.47827632      0.17168039
C      -0.63249771      0.28222001     -0.05271932
C      -1.28926870     -0.99546562      0.38970414
C       0.67809521      0.15490357     -0.79326509
C       1.82455785     -0.27906064      0.10918473
H      -2.14911815      1.56894205      0.69316508
H      -0.73280400      2.40118443     -0.15738979
H      -0.67053622     -1.51209298      1.12964360
H      -1.43990272     -1.66137380     -0.46615067
H      -2.26907693     -0.81630436      0.84530188
H       0.94633721      1.11073962     -1.26054070
H       0.56257634     -0.56302927     -1.61411165
H       2.75978933     -0.30799793     -0.45935860
H       1.95746348      0.41792119      0.94337550
H       1.65533517     -1.27886258      0.52148050
