26
ClC(Cl)=C(c1ccc(Cl)cc1)c1ccc(Cl)cc1
Cl      1.60509166     -2.85852107     -1.77878707
C       0.11351977     -2.17632169     -1.19292954
Cl     -1.29150424     -3.15334835     -1.51656419
C       0.05163978     -0.99001325     -0.54266472
C       1.29394130     -0.22304988     -0.27376602
C       2.13773158     -0.58068473      0.78799400
C       3.30023238      0.15170270      1.04119270
C       3.61909402      1.24441200      0.23727858
Cl      5.05020708      2.14629788      0.55017607
C       2.78579288      1.61259882     -0.81732843
C       1.62304929      0.88089323     -1.07220053
C      -1.25867094     -0.45315264     -0.09688529
C      -2.11689426      0.18126712     -1.00693044
C      -3.34427880      0.69282418     -0.57827487
C      -3.71400853      0.57529765      0.76017576
Cl     -5.22507115      1.20620768      1.28746112
C      -2.86739212     -0.04830700      1.67478112
C      -1.63974604     -0.56088688      1.24761179
H       1.89867703     -1.43166581      1.42202824
H       3.95026141     -0.13485320      1.86366022
H       3.03421752      2.46579799     -1.44301010
H       0.98005390      1.17828791     -1.89747408
H      -1.83853624      0.27874733     -2.05398863
H      -4.00474200      1.17945668     -1.29107408
H      -3.15563085     -0.13833580      2.71878989
H      -0.98703441     -1.04465087      1.97072851
