30
Cc1c(Cl)cccc1Nc1ccccc1C(=O)O
C       2.45027783     -0.72962694     -1.97515412
C       2.48521139     -0.14859488     -0.58322440
C       3.71972268      0.14312727      0.03186187
Cl      5.22888615     -0.15875284     -0.76100938
C       3.77512664      0.68270479      1.31887041
C       2.60108119      0.92644735      2.02024332
C       1.37205940      0.62490152      1.43547748
C       1.29116064      0.08627660      0.13989274
N       0.04084815     -0.24369575     -0.43960086
C      -1.26101895      0.22727793     -0.13648746
C      -1.46123942      1.57956144      0.19358921
C      -2.73270136      2.07789709      0.48719424
C      -3.83688844      1.23445118      0.44586917
C      -3.67164242     -0.10632201      0.10027709
C      -2.39491330     -0.61593557     -0.19855383
C      -2.23937175     -2.04595972     -0.57868161
O      -1.19714385     -2.58559631     -0.90953223
O      -3.38976390     -2.74214255     -0.52845609
H       1.46356840     -0.65041189     -2.44076697
H       3.13364385     -0.19173709     -2.64046898
H       2.72936650     -1.78758765     -1.94464297
H       4.73292872      0.90682057      1.78139979
H       2.63951939      1.33595145      3.02609872
H       0.47069387      0.78701826      2.02124495
H       0.03579112     -1.22539567     -0.74227846
H      -0.61793427      2.26713460      0.20180005
H      -2.85704851      3.12834347      0.73890367
H      -4.82772859      1.62086193      0.67185938
H      -4.54914007     -0.74783489      0.06189870
H      -3.13335110     -3.64918167     -0.79762342
