21
O=C1OC(=O)c2cccc3cccc1c23
O      -1.09258045     -2.51066296     -2.49880047
C      -0.32096273     -1.90252129     -1.76554819
O       0.99171880     -2.21489079     -1.71073311
C       1.87694730     -1.57261072     -0.91854639
O       3.06166553     -1.88710269     -0.89789333
C       1.39626148     -0.47250534     -0.06584938
C       2.29123154      0.21257636      0.76666550
C       1.83577034      1.25357762      1.57339179
C       0.48750050      1.61248308      1.55078960
C      -0.41786481      0.93325121      0.72082673
C      -1.77913652      1.27225477      0.67730029
C      -2.65642637      0.57928660     -0.15775020
C      -2.18101736     -0.45871950     -0.95678943
C      -0.82392353     -0.80575799     -0.92143739
C       0.05468667     -0.12214654     -0.09433022
H       3.34469580     -0.06292430      0.78870241
H       2.53078543      1.78527774      2.21964455
H       0.14862498      2.42805018      2.18733699
H      -2.16729160      2.08042046      1.29486141
H      -3.71005848      0.84852510     -0.18536622
H      -2.87062654     -0.99586101     -1.60647496
