56
Fc1ccc(C(c2ccc(F)cc2)N2CCN(C/C=C/c3ccccc3)CC2)cc1
F      -6.91440629      1.25170325      3.43510054
C      -5.91188067      1.10839835      2.55900930
C      -5.50752455     -0.16651225      2.18475792
C      -4.46032499     -0.31573131      1.27479832
C      -3.80917653      0.81136549      0.73760625
C      -2.66596009      0.67411430     -0.27926901
C      -3.25256080      0.29989007     -1.64991011
C      -3.55706036      1.31295673     -2.57975045
C      -4.11224221      0.99523824     -3.82020894
C      -4.37111550     -0.33273156     -4.13669734
F      -4.90136175     -0.63334250     -5.33055186
C      -4.08900474     -1.35144228     -3.23513499
C      -3.53477182     -1.03630052     -1.99389434
N      -1.57222993     -0.23957161      0.16978981
C      -1.03282199      0.17772750      1.49026749
C       0.17710277     -0.67174709      1.94276962
N       1.28425237     -0.60812838      0.96979141
C       2.42064997     -1.41859334      1.42477363
C       3.68498750     -1.04720628      0.70097149
C       4.79645890     -0.59609215      1.30628971
C       6.01395343     -0.22521856      0.57326943
C       7.26142883     -0.62755372      1.06425425
C       8.43657469     -0.26945747      0.39540841
C       8.37403931      0.50447876     -0.76247013
C       7.13850206      0.92622384     -1.24917667
C       5.96391811      0.56671582     -0.58183279
C       0.76999710     -1.05655636     -0.33909472
C      -0.44516686     -0.21902066     -0.79933426
C      -4.24090312      2.09197861      1.13237996
C      -5.28787641      2.23796509      2.04311906
H      -6.01012641     -1.03433114      2.59967199
H      -4.14525471     -1.31620482      0.98784485
H      -2.21130887      1.66996068     -0.38783757
H      -3.36678504      2.35660139     -2.34010133
H      -4.34836655      1.77299660     -4.53948442
H      -4.30120609     -2.38192089     -3.50150652
H      -3.31064907     -1.83832386     -1.29306593
H      -1.79719720      0.07516863      2.26682148
H      -0.73273050      1.23394470      1.46304054
H       0.51584418     -0.28579224      2.91260025
H      -0.14546992     -1.71128710      2.09698476
H       2.22369956     -2.49136296      1.29748868
H       2.57779316     -1.25673389      2.49987654
H       3.68096305     -1.17503786     -0.37938931
H       4.83665244     -0.48900898      2.38902506
H       7.32797932     -1.23201857      1.96612333
H       9.40003694     -0.59502987      0.77877717
H       9.28794976      0.78326029     -1.28297244
H       7.08655265      1.53854307     -2.14600271
H       5.00938295      0.91907193     -0.96541432
H       1.54491191     -0.95731858     -1.10717625
H       0.48156301     -2.11637549     -0.30122728
H      -0.11302526      0.81236828     -0.98066728
H      -0.76271441     -0.63062915     -1.76374075
H      -3.76167901      2.98306766      0.73195532
H      -5.62229230      3.22284216      2.35134517
