35
CCCCCCCCCCC(=O)O
C      -5.73559281      0.77609071     -0.74598946
C      -4.78194377     -0.14101485      0.00299254
C      -3.32306286      0.21377651     -0.28331088
C      -2.36703844     -0.71100846      0.47204511
C      -0.90623494     -0.35614799      0.18502274
C       0.04772232     -1.28045824      0.94491295
C       1.52308301     -1.04119340      0.60802442
C       2.02823291      0.33580358      1.04666266
C       3.54598793      0.49261747      0.91324250
C       4.03683717      0.42924196     -0.53248418
C       5.51056484      0.71965240     -0.63058113
O       6.29491811      0.90883751      0.28256398
O       5.93127596      0.74745700     -1.91091855
H      -5.58814794      1.82012152     -0.45171707
H      -5.58554088      0.69916540     -1.82761007
H      -6.77299891      0.50467342     -0.52682670
H      -4.97722243     -1.17920291     -0.28981187
H      -4.97978474     -0.06441923      1.07849046
H      -3.13424361      1.25440226      0.00740220
H      -3.13147876      0.13955859     -1.36073973
H      -2.55796603     -0.63629934      1.54954184
H      -2.55671526     -1.75138329      0.18112401
H      -0.72804912      0.68601483      0.47270827
H      -0.71441129     -0.43446672     -0.89187347
H      -0.19317187     -2.32277675      0.70143648
H      -0.10639616     -1.16546733      2.02474118
H       1.66980316     -1.17163637     -0.47020156
H       2.11729600     -1.81703786      1.10631550
H       1.53514780      1.12255357      0.46454848
H       1.75832791      0.50016097      2.09707480
H       4.05165902     -0.27579928      1.51137649
H       3.83143681      1.45821066      1.35010936
H       3.86524947     -0.56762119     -0.95089624
H       3.50210881      1.17025841     -1.13682639
H       6.89034858      0.93733643     -1.84028615
