13
CC(=O)CC(=O)O
C      -1.57944760     -0.89611284      0.11315049
C      -0.93858226      0.18262407     -0.72208728
O      -1.36874517      0.45408621     -1.84481235
C       0.21958670      0.93985037     -0.12977185
C       1.40961304      0.09056790      0.17364466
O       1.51813146     -1.11489722      0.03606740
O       2.43369024      0.81464805      0.66930643
H      -0.98966962     -1.81318202      0.06134546
H      -2.58579094     -1.09780215     -0.26520408
H      -1.66664528     -0.56122889      1.14996089
H       0.52176207      1.71329547     -0.84446516
H      -0.12514978      1.42539486      0.78873391
H       3.15124713      0.16133699      0.81413148
