9
CS(=O)(=O)O
C       1.08630573      0.30895138     -0.10991969
S      -0.46315410     -0.50499031      0.20180267
O      -0.61029499     -0.74485441      1.61746774
O      -0.67710521     -1.53301872     -0.79084023
O      -1.44183622      0.71138624     -0.20816181
H       1.88904548     -0.39938849      0.10481205
H       1.12273179      0.60925484     -1.15868279
H       1.16685055      1.17653245      0.54750172
H      -2.07254303      0.37612703     -0.88149332
