39
CCCCCCCCCCCCO
C      -5.78709162      1.89536025      0.27555558
C      -4.51023816      1.29476791     -0.29049668
C      -3.88023248      0.29888704      0.68302449
C      -2.59564589     -0.30367740      0.10936142
C      -1.96502873     -1.29700945      1.08781329
C      -0.73843897     -2.01651400      0.51936988
C       0.44644729     -1.08361764      0.25485188
C       1.67905727     -1.87257344     -0.19539306
C       2.86194070     -0.98088368     -0.58698047
C       3.42883496     -0.17792146      0.58666399
C       4.73681361      0.53983667      0.24924303
C       4.58282672      1.62410980     -0.81019530
O       5.82653537      2.28697765     -1.00207358
H      -6.22064361      2.60436384     -0.43666381
H      -5.58838612      2.43063563      1.20954325
H      -6.53097127      1.11776721      0.47636952
H      -3.80051521      2.10081425     -0.51023787
H      -4.73774236      0.79502753     -1.23928490
H      -3.65774566      0.80264275      1.63161978
H      -4.59630744     -0.50237780      0.90272431
H      -2.81905919     -0.81082442     -0.83695127
H      -1.89003963      0.50458423     -0.11271411
H      -2.71035045     -2.05547808      1.35793117
H      -1.69092399     -0.78003339      2.01550355
H      -0.43263180     -2.78822679      1.23681387
H      -1.01416601     -2.53724481     -0.40573195
H       0.18495155     -0.35513399     -0.52041951
H       0.67287587     -0.52373677      1.16892388
H       1.41298293     -2.48793259     -1.06390350
H       1.98720212     -2.56393252      0.59838109
H       2.55002193     -0.30511464     -1.39144035
H       3.65143225     -1.62197057     -0.99813006
H       3.61702655     -0.85548254      1.42848060
H       2.69476322      0.55990944      0.92974537
H       5.49405815     -0.18447264     -0.07584666
H       5.13891445      0.99139942      1.16510694
H       4.28481798      1.20048371     -1.77314406
H       3.83617723      2.36788577     -0.51432022
H       6.07847843      2.68870554     -0.15313847
