18
COC(=O)c1ccccc1
C       3.43432448     -0.00642157     -0.02490610
O       2.05330054     -0.36953633     -0.04912367
C       1.20531470      0.68454587      0.05555255
O       1.53383470      1.85578940      0.16286968
C      -0.21077997      0.22692590      0.02273613
C      -0.56299525     -1.12426476     -0.10125525
C      -1.90876562     -1.49915742     -0.12682662
C      -2.90695689     -0.53018991     -0.02906094
C      -2.56457509      0.81558049      0.09449284
C      -1.22080644      1.19426128      0.12043417
H       4.02652379     -0.92128826     -0.11474462
H       3.68704253      0.47789666      0.92356071
H       3.67434220      0.64584597     -0.87045807
H       0.19863873     -1.89602243     -0.17888848
H      -2.17813646     -2.54822718     -0.22312239
H      -3.95362797     -0.82441172     -0.04919790
H      -3.34278194      1.57105594      0.17071686
H      -0.96389604      2.24761810      0.21722109
