53
OCCN1CCN(CCCN2c3ccccc3Sc3ccc(Cl)cc32)CC1
O       7.18931109      0.45276573     -0.07657393
C       6.57678258     -0.07711900      1.09713601
C       5.23200087     -0.72606389      0.73579906
N       4.38178035      0.17117462     -0.07697363
C       3.86477523      1.31176845      0.70852062
C       2.87917576      2.19241287     -0.09913506
N       1.73857733      1.46164309     -0.69445752
C       0.75346749      1.08396213      0.32930129
C      -0.56087987      0.56839351     -0.27094926
C      -1.61489632      0.37964588      0.83081370
N      -2.86899572     -0.20453199      0.30100427
C      -2.99476042     -1.62473610      0.34823112
C      -1.88007631     -2.47506724      0.53568517
C      -1.99103439     -3.87081013      0.57177697
C      -3.22876432     -4.47027171      0.41691455
C      -4.34758807     -3.66928618      0.22314802
C      -4.24017014     -2.26438871      0.18356227
S      -5.77044030     -1.39206510     -0.04471286
C      -5.21980739      0.27459664     -0.31594602
C      -6.22009746      1.17724141     -0.73113389
C      -5.92781584      2.51722923     -0.95623629
C      -4.62978765      2.95745656     -0.76633082
Cl     -4.24162970      4.61168227     -1.04438069
C      -3.63065405      2.06996287     -0.35291701
C      -3.89110545      0.70221781     -0.10787860
C       2.27994390      0.31624221     -1.45582279
C       3.25488195     -0.58564073     -0.66257850
H       6.44280607      0.75255105     -0.63492325
H       6.45307471      0.73537724      1.81903523
H       7.25400678     -0.81755690      1.53314628
H       5.46218605     -1.61501336      0.13422232
H       4.71665132     -1.06637477      1.64189704
H       3.37060127      0.95659180      1.62175807
H       4.69580962      1.95451854      1.01922261
H       2.51653874      3.01221763      0.53337305
H       3.43257397      2.67815182     -0.91432479
H       1.15429217      0.34201236      1.02947190
H       0.51192822      1.97578876      0.92235380
H      -0.39604634     -0.37899640     -0.79309963
H      -0.92186637      1.27284593     -1.02856257
H      -1.20975876     -0.23650952      1.64417887
H      -1.80838303      1.33318883      1.33947994
H      -0.87541178     -2.08073218      0.64269990
H      -1.10405513     -4.48248265      0.71586956
H      -3.32658346     -5.55192889      0.44274696
H      -5.31759678     -4.14821230      0.10215300
H      -7.24218753      0.83325001     -0.88046987
H      -6.70931742      3.19959196     -1.27739638
H      -2.63386231      2.48345875     -0.24669063
H       1.47559500     -0.29504028     -1.87757873
H       2.81373658      0.71757869     -2.32832499
H       2.70275592     -1.12183766      0.11981093
H       3.65031934     -1.34085296     -1.35282444
