26
Nc1ccc2cc3ccccc3cc2c1
N      -4.48082150     -1.18364057     -0.29369915
C      -3.26500598     -0.49916473     -0.17574917
C      -3.23021744      0.77941358      0.37871281
C      -2.01165650      1.42501952      0.60728450
C      -0.79694354      0.78339831      0.32510632
C       0.43709485      1.41695033      0.54788747
C       1.65242006      0.76536066      0.28045296
C       2.88726834      1.39744311      0.50190378
C       4.08659862      0.73607680      0.23315783
C       4.06705286     -0.56493067     -0.25966143
C       2.84814382     -1.20655230     -0.48467491
C       1.63255054     -0.55425988     -0.21961465
C       0.39772945     -1.18666938     -0.44110511
C      -0.81832013     -0.53286740     -0.17887991
C      -2.05618467     -1.16405080     -0.40156052
H      -5.28299595     -0.57449435     -0.41992977
H      -4.46149411     -1.93990261     -0.97052155
H      -4.15388108      1.28955124      0.63810249
H      -2.02068778      2.43029872      1.02191894
H       0.45179577      2.43270148      0.93844350
H       2.92310038      2.41386132      0.88750673
H       5.03455424      1.23748978      0.40956335
H       4.99970215     -1.08208802     -0.46910847
H       2.85343461     -2.22379613     -0.86973776
H       0.38248977     -2.20472869     -0.82572189
H      -2.07572679     -2.19041934     -0.76007638
