76
OCCN(CCO)c1nc(N2CCCCC2)c2nc(N(CCO)CCO)nc(N3CCCCC3)c2n1
O       4.88634184      0.38151902      2.52137973
C       4.55198095      1.50766434      1.70479601
C       4.67271809      1.13820004      0.21555852
N       3.82728130     -0.03075831     -0.10847570
C       4.27668374     -0.82460292     -1.27337222
C       5.05496746     -2.05722491     -0.78379105
O       4.23922925     -2.86892876      0.05870929
C       2.45229002      0.22357803     -0.15566281
N       2.00722785      1.47033241     -0.05183970
C       0.67630027      1.69381506     -0.06116513
N       0.23915970      3.04173268      0.03619539
C      -0.41570343      3.53320598     -1.18235145
C      -1.24308287      4.78409701     -0.85686617
C      -0.70515572      5.57094131      0.34233525
C       0.80740808      5.42706470      0.44714909
C       1.22727194      3.96314118      0.62042550
C      -0.26534664      0.65760971     -0.12784932
N      -1.59921549      0.89817955     -0.07873182
C      -2.43966535     -0.12867847     -0.12277880
N      -3.78839485      0.10678156     -0.01241042
C      -4.30406127      1.47705712      0.01311383
C      -4.12015844      2.15374985      1.37961086
O      -2.85879330      2.80015720      1.51977077
C      -4.69775140     -0.99630244      0.31517863
C      -5.29720322     -1.61018558     -0.96277263
O      -4.35632046     -2.42757372     -1.65228425
N      -2.01539229     -1.38262456     -0.27366934
C      -0.68075612     -1.63627136     -0.29575851
N      -0.30161557     -2.99075269     -0.42917370
C       0.73108268     -3.46800067      0.50635399
C       0.37635587     -4.83507868      1.08938473
C       0.09826570     -5.86255959     -0.00191056
C      -0.74481476     -5.29146420     -1.14429779
C      -1.35753183     -3.93120372     -0.80622247
C       0.28459724     -0.61079077     -0.22053817
N       1.63090523     -0.82023176     -0.24466294
H       4.57766343     -0.40207865      2.02322965
H       5.24311069      2.31991040      1.95143472
H       3.54189614      1.82813051      1.98055718
H       5.71901597      0.85270101      0.03584819
H       4.46143327      1.99723280     -0.43333556
H       4.91696251     -0.21470021     -1.92640238
H       3.43790921     -1.17466174     -1.89366111
H       5.38642537     -2.66527179     -1.63199944
H       5.93560966     -1.75817381     -0.20523119
H       3.63876166     -2.24753105      0.51907908
H       0.35147640      3.78163959     -1.92961756
H      -1.07500098      2.79432095     -1.65313284
H      -2.28904861      4.51152125     -0.66710400
H      -1.25259587      5.43039143     -1.74286445
H      -0.98882395      6.62505014      0.25708086
H      -1.16643738      5.19707829      1.26642532
H       1.19751896      6.02819922      1.27709784
H       1.26280059      5.83135674     -0.46672608
H       1.31052074      3.74012518      1.69141207
H       2.23259654      3.84631239      0.18851066
H      -3.86236591      2.07060514     -0.78910795
H      -5.37895475      1.43457178     -0.19022823
H      -4.23306624      1.44240942      2.20295070
H      -4.87953418      2.93609448      1.49664184
H      -2.19290638      2.27664235      1.02680583
H      -4.19486691     -1.76951004      0.91350525
H      -5.51351420     -0.61079028      0.93979584
H      -5.64268635     -0.83049139     -1.65020065
H      -6.15049608     -2.24368934     -0.70692680
H      -3.47109213     -2.04883452     -1.46316109
H       0.87521265     -2.78562596      1.35402209
H       1.67772508     -3.54301115     -0.03846912
H       1.18520517     -5.19317720      1.73543109
H      -0.51013266     -4.73857514      1.73019220
H      -0.41219871     -6.72712803      0.44202365
H       1.04612788     -6.23812197     -0.41362773
H      -0.11275740     -5.19082053     -2.03928061
H      -1.54380474     -6.00063821     -1.40467167
H      -2.09997140     -4.04065048     -0.00395145
H      -1.87682132     -3.57640520     -1.70572083
