9
O=C(O)CO
O       0.50763589      1.52068852      0.36506718
C       0.58022272      0.32988138      0.10200652
O       1.77199172     -0.27687300     -0.05098619
C      -0.59870218     -0.60024846     -0.12042599
O      -1.84056504      0.00693908      0.21520642
H       2.42934917      0.43109666      0.11732116
H      -0.62961550     -0.88500896     -1.17556365
H      -0.48013618     -1.48967293      0.50395573
H      -1.74018058      0.96319772      0.04341883
