48
CNS(=O)(=O)CCc1ccc2[nH]cc(C3CCN(C)CC3)c2c1
C       3.30548507      2.93997658     -1.22037774
N       4.03065664      1.74219896     -1.64352587
S       4.90646728      0.90108137     -0.48373489
O       5.81944071      0.05333356     -1.21853105
O       5.38752453      1.86057678      0.48510280
C       3.66065321     -0.12424100      0.28100466
C       3.01860933     -1.07965625     -0.71160918
C       1.91709122     -1.87834677     -0.05844996
C       2.17105508     -3.15156209      0.45869156
C       1.16533312     -3.89359849      1.08638884
C      -0.10557028     -3.31587551      1.18810895
N      -1.25775068     -3.81234098      1.74819866
C      -2.27234589     -2.90301432      1.62960831
C      -1.78675813     -1.78253060      0.98000223
C      -2.59195027     -0.54740306      0.66046733
C      -2.71877196     -0.29734926     -0.84732426
C      -3.51224954      0.97828114     -1.12898653
N      -2.91442850      2.13571395     -0.44876627
C      -3.64841863      3.35727519     -0.78129375
C      -2.88657498      1.93555427      1.00641032
C      -2.06203661      0.70238022      1.37420285
C      -0.40344561     -2.04622513      0.69324589
C       0.63037732     -1.32297915      0.05993722
H       2.61128976      3.22989255     -2.01440682
H       3.99968537      3.76843918     -1.05712319
H       2.72157026      2.75473399     -0.31506161
H       4.55006101      1.81367962     -2.52040740
H       2.92825615      0.54414029      0.74670833
H       4.16279425     -0.67489767      1.08479842
H       2.60107440     -0.53862008     -1.56896110
H       3.76983474     -1.76009119     -1.13126840
H       3.16545473     -3.58661735      0.37553977
H       1.37159954     -4.88334288      1.48080077
H      -1.33609748     -4.71954694      2.18544265
H      -3.25684326     -3.12656023      2.01891622
H      -3.61079665     -0.72047283      1.04000200
H      -3.21658619     -1.14953733     -1.32720772
H      -1.73073466     -0.21312794     -1.31601421
H      -4.55731436      0.83963060     -0.82141265
H      -3.51282444      1.14484703     -2.21309105
H      -3.16906549      4.23011444     -0.32367754
H      -4.69077438      3.31910934     -0.44416208
H      -3.64155773      3.52839069     -1.86354512
H      -3.90357319      1.83428874      1.40750035
H      -2.43144644      2.80650324      1.49348623
H      -2.09299310      0.55481248      2.46083532
H      -1.01167013      0.88523963      1.11685029
H       0.42826489     -0.33225680     -0.33716718
