23
CC(O)COC(C)CO
C      -3.48752313      0.29789482      0.32530575
C      -2.20504020      0.26888766     -0.48708973
O      -2.01301012      1.55641238     -1.08033304
C      -0.98686772     -0.07155601      0.37766728
O       0.16455887     -0.08466245     -0.47909621
C       1.37416316     -0.43327669      0.20924346
C       1.94201439      0.78367873      0.93826920
C       2.36859823     -0.95385776     -0.83769164
O       3.55712166     -1.43375798     -0.22097735
H      -4.33730925      0.56523410     -0.31198012
H      -3.68862979     -0.67391386      0.78597595
H      -3.43574620      1.05690438      1.11368211
H      -2.29467738     -0.45072356     -1.30844942
H      -1.10303192      1.53883094     -1.43621446
H      -1.11210935     -1.05498031      0.84364836
H      -0.85267359      0.69139348      1.15097669
H       1.18228727     -1.23323650      0.93557215
H       2.08039998      1.62150400      0.24609482
H       1.25879466      1.13093343      1.71919015
H       2.90180314      0.55702290      1.41237832
H       2.62984886     -0.16448406     -1.55161112
H       1.91661008     -1.77289931     -1.40820563
H       4.14041836     -1.74134835     -0.93635552
