12
O=c1[nH]cc(F)c(=O)[nH]1
O      -2.15018334      1.54506127      0.03445578
C      -1.15520089      0.82981567      0.01852074
N      -1.24435843     -0.53839603      0.06614663
C      -0.15449623     -1.36821704      0.05018777
C       1.07966530     -0.86781958     -0.01433408
F       2.17672964     -1.64586675     -0.03224539
C       1.27173803      0.59932095     -0.06918572
O       2.37999839      1.11946872     -0.12940817
N       0.11422563      1.33859858     -0.04765336
H      -2.18374826     -0.91852818      0.11523424
H      -0.34043037     -2.43533722      0.09189622
H       0.20606053      2.34189960     -0.08361465
