20
CC(=O)OCC(C)C
C       3.31331188      0.84287678     -0.22058415
C       2.30010569     -0.22710197      0.04823137
O       2.56963774     -1.35003800      0.44988384
O       1.04996890      0.23854386     -0.22075647
C       0.00335891     -0.71529928      0.00980300
C      -1.34817519     -0.06253188     -0.30653233
C      -2.47402670     -1.08877074     -0.19897247
C      -1.62236576      1.12650085      0.61693360
H       3.12062129      1.70564395      0.42198896
H       4.31317966      0.45929231      0.00183331
H       3.27722075      1.13128739     -1.27408340
H       0.16072795     -1.57998934     -0.64628561
H       0.03160937     -1.04638894      1.05533492
H      -1.31819680      0.32053061     -1.33458452
H      -2.30604261     -1.92377337     -0.88730294
H      -2.54651826     -1.49501606      0.81567434
H      -3.43859318     -0.63640105     -0.45251241
H      -0.85531688      1.89969311      0.50532673
H      -1.64122345      0.81663698      1.66735966
H      -2.58928334      1.58430477      0.38219581
