24
NCCc1c[nH]c2ccccc12
N      -3.91339918      0.63018982     -0.19081783
C      -2.56160958      0.20527684     -0.55995687
C      -1.82188723     -0.42007861      0.62858837
C      -0.42961888     -0.83855128      0.26933631
C      -0.02741701     -2.10554831     -0.10689454
N       1.31823155     -2.07519215     -0.35331415
C       1.81168075     -0.80835207     -0.14785906
C       3.11580028     -0.31605500     -0.27960722
C       3.32940552      1.03646455      0.00143557
C       2.27958111      1.86077532      0.39853702
C       0.98178087      1.35176193      0.52514024
C       0.73838698     -0.00926125      0.24704107
H      -4.35703830      1.06295386     -1.00029147
H      -3.85800570      1.35530342      0.52345029
H      -2.00820029      1.07140552     -0.94106248
H      -2.63136944     -0.51896343     -1.37972520
H      -2.38068394     -1.29126199      0.99458894
H      -1.78026086      0.29329268      1.46160527
H      -0.58721937     -3.02480740     -0.21862532
H       1.87536112     -2.86615382     -0.64427236
H       3.93601705     -0.95597375     -0.58757067
H       4.33120470      1.44967367     -0.09069697
H       2.46768611      2.90960082      0.61380143
H       0.17157373      2.00350064      0.83716963
