28
CCOP(=S)(OCC)Oc1cnccn1
C      -2.62571664     -3.17183336     -0.11625944
C      -1.76744032     -2.24571348     -0.95344619
O      -1.64648143     -1.00701275     -0.27392191
P      -0.46625213      0.01761753     -0.72615853
S      -0.58503522      0.59489192     -2.58005415
O      -0.62178055      1.13594995      0.43588610
C      -1.76950424      1.96572761      0.42501885
C      -1.85769332      2.68343663      1.75627019
O       0.83157355     -0.81738031     -0.25460048
C       2.07070823     -0.24586729     -0.20668226
C       3.14349023     -1.02580893      0.19764082
N       4.40885082     -0.54554322      0.27106612
C       4.54914021      0.75268758     -0.08043167
C       3.47520920      1.53037605     -0.48214870
N       2.21258051      1.04760007     -0.55129788
H      -3.61360511     -2.73196431      0.05612418
H      -2.17249849     -3.33239062      0.86758132
H      -2.75136709     -4.13981019     -0.60931461
H      -0.78039839     -2.69182274     -1.10986948
H      -2.24005342     -2.07860324     -1.92581676
H      -2.66982816      1.36437293      0.26491908
H      -1.68009481      2.69536274     -0.38527180
H      -1.92912558      1.96330392      2.57811631
H      -2.72976958      3.34250533      1.78752961
H      -0.95684970      3.28034162      1.93330622
H       3.01534504     -2.06555400      0.47504780
H       5.55463303      1.15497911     -0.03083328
H       3.60196339      2.57015146     -0.76239947
