32
CCCCCCCCC(=O)OC
C      -5.23443470     -0.70829695     -1.48260575
C      -4.31653391     -0.77212918     -0.27228064
C      -2.92221828     -0.23737968     -0.59802927
C      -2.00197505     -0.30341755      0.62204109
C      -0.60593635      0.23247586      0.29611802
C       0.31339594      0.16157123      1.51735386
C       1.68999387      0.78737855      1.27858394
C       2.52503750      0.03996892      0.23940055
C       3.92377858      0.60274322      0.13165606
O       4.34097989      1.59042634      0.71901481
O       4.65152341     -0.15911153     -0.73465711
C       5.99479250      0.29110057     -0.91489184
H      -5.35186184      0.32246346     -1.83200556
H      -6.22582124     -1.09543000     -1.22727859
H      -4.83770555     -1.30810820     -2.30793565
H      -4.24628525     -1.81074798      0.07128891
H      -4.75763511     -0.18917583      0.54460288
H      -2.48733730     -0.82117909     -1.41847147
H      -2.99846334      0.80033223     -0.94502350
H      -2.43768950      0.28022778      1.44210504
H      -1.92501077     -1.34118757      0.96866249
H      -0.68254299      1.27131105     -0.04678952
H      -0.18173049     -0.35215568     -0.52781001
H       0.43365671     -0.88267394      1.83055771
H      -0.16106858      0.68917966      2.35413933
H       2.23070089      0.80148462      2.23361565
H       1.57249848      1.83566056      0.97666182
H       2.60310686     -1.01593277      0.52157645
H       2.06027203      0.11505025     -0.74891131
H       6.00728367      1.30105001     -1.33654689
H       6.54058602      0.25889407      0.03328315
H       6.48664393     -0.38439243     -1.62026131
