20
CSCC[C@H](N)C(=O)O
C      -2.27756174     -2.73989437      1.24831383
S      -0.88616489     -2.50996176      0.11439357
C      -0.69060914     -0.70564519      0.29003110
C       0.52234266     -0.24100867     -0.51994848
C       0.62032706      1.28529405     -0.61400611
N       1.67886088      1.66611327     -1.60557924
C       0.97729095      1.95089852      0.73079452
O       0.45879043      1.70722035      1.80751926
O       1.94100352      2.89568583      0.56564939
H      -3.14202262     -2.16178400      0.91172271
H      -2.55332600     -3.79752168      1.26984760
H      -1.99928913     -2.43262611      2.25972055
H      -1.60199238     -0.21927098     -0.07183811
H      -0.56419999     -0.47879334      1.35117331
H       0.45211553     -0.64647540     -1.53868431
H       1.43870601     -0.64768607     -0.07135393
H      -0.32390506      1.72645145     -0.95214492
H       2.46931066      1.01979773     -1.49207751
H       1.31978303      1.44390660     -2.53989626
H       2.16054022      2.88529976     -0.40076353
