47
O=C(OCCCOCCCOC(=O)c1ccccc1)c1ccccc1
O      -4.46911608     -0.70143837     -3.13564583
C      -3.94057715      0.36332562     -2.85676733
O      -3.32942930      0.65969677     -1.68228620
C      -3.35218078     -0.40361521     -0.72099678
C      -2.62328228      0.04710373      0.53668237
C      -1.15252070      0.34638112      0.27208580
O      -0.54260397      0.70516515      1.51251761
C       0.84157255      1.01355566      1.35050217
C       1.43418549      1.37633057      2.70727090
C       1.41366593      0.20567503      3.68719023
O       2.19271657     -0.89745623      3.19426626
C       3.52403797     -0.84382643      3.44513310
O       4.10730101      0.05333843      4.03284895
C       4.20884006     -2.04023435      2.88337673
C       5.60221106     -2.12553592      3.01168792
C       6.29094880     -3.22660254      2.49897124
C       5.59257201     -4.24803841      1.85688920
C       4.20629752     -4.17201607      1.72614992
C       3.51343194     -3.07176228      2.23692405
C      -3.88041224      1.52376125     -3.78659187
C      -4.45949221      1.38475743     -5.05560768
C      -4.42900175      2.44478382     -5.96383132
C      -3.82059904      3.64843698     -5.61015936
C      -3.24240328      3.79550128     -4.34965087
C      -3.27098868      2.73728089     -3.43787584
H      -2.86818831     -1.29370389     -1.14019358
H      -4.39259648     -0.64139762     -0.47135312
H      -3.09702522      0.95050238      0.94107039
H      -2.70832394     -0.72227228      1.31330839
H      -1.04785319      1.17538823     -0.43701118
H      -0.65218991     -0.53952595     -0.13567193
H       0.94072343      1.86895881      0.67225002
H       1.36625922      0.15762169      0.91123662
H       0.86370596      2.20367366      3.14480767
H       2.46414487      1.71727248      2.55596541
H       1.77391406      0.51975924      4.67431475
H       0.39178976     -0.16136584      3.83105496
H       6.15666235     -1.33417777      3.51302815
H       7.37155719     -3.28693673      2.60245427
H       6.12960727     -5.10592919      1.45912058
H       3.66344567     -4.97120785      1.22755655
H       2.43267303     -3.03397839      2.12588715
H      -4.93788818      0.44955011     -5.34118331
H      -4.88117845      2.33063531     -6.94609626
H      -3.79812501      4.47400748     -6.31781042
H      -2.76992559      4.73595719     -4.07564247
H      -2.81636197      2.87512190     -2.46017602
