30
Nc1nc(N)c2nc(-c3ccccc3)c(N)nc2n1
N      -5.55673855      0.61062388     -0.44548975
C      -4.22111445      0.27923925     -0.38091907
N      -3.90794924     -1.01205023     -0.39642774
C      -2.60201716     -1.31033760     -0.33228621
N      -2.29962502     -2.68219919     -0.29317276
C      -1.59040154     -0.36115625     -0.23184642
N      -0.26400762     -0.67580773     -0.18116040
C       0.60888637      0.35876452     -0.09672513
C       2.03185923     -0.02998839     -0.05586424
C       3.01335081      0.64196474     -0.80613533
C       4.35682145      0.25728478     -0.75436217
C       4.74561811     -0.81456055      0.04405755
C       3.79220535     -1.50600047      0.78538227
C       2.45005652     -1.11925855      0.73164299
C       0.13379626      1.67848835     -0.03399994
N       0.96168332      2.79740887      0.07886073
N      -1.18398048      1.96343758     -0.09903415
C      -2.05660683      0.95574980     -0.20376521
N      -3.34622917      1.27155828     -0.27031669
H      -5.71509460      1.52405300     -0.04257817
H      -6.12944649     -0.15205334     -0.11227064
H      -1.49327107     -2.89924218     -0.87231977
H      -3.13331512     -3.21696988     -0.51273994
H       2.73703813      1.47219276     -1.45473004
H       5.09636264      0.79259260     -1.34460256
H       5.78913689     -1.11612143      0.08168626
H       4.08827889     -2.35021830      1.40273137
H       1.71869786     -1.67915563      1.31346141
H       0.36196065      3.61432282      0.17322273
H       1.61404487      2.70743851      0.85159062
