12
S=C1NCCN1
S       2.95484514     -0.14506426     -0.14934720
C       1.31406351     -0.06451226     -0.06641674
N       0.57307064      1.07792356      0.15847646
C      -0.82335231      0.75629252      0.31075741
C      -0.92036674     -0.67068696     -0.22262433
N       0.44615219     -1.12796103     -0.20999078
H       1.01315062      1.95079802      0.42306680
H      -1.44249015      1.46674385     -0.24216968
H      -1.06561560      0.80517438      1.37700279
H      -1.54718303     -1.31996988      0.39327695
H      -1.27226207     -0.69039921     -1.25883918
H       0.76998780     -2.03833873     -0.51319250
