20
COc1ccc([N+](=O)[O-])cc1N
C       2.96821112     -0.68434990     -0.86228797
O       2.09068941      0.40248813     -0.59661415
C       0.81375303      0.08980726     -0.19490309
C       0.37875810     -1.18991397      0.16504018
C      -0.94663077     -1.39626699      0.55856184
C      -1.83810684     -0.31691669      0.58149333
N      -3.23542896     -0.53685754      0.97132833
O      -3.59448996     -1.70239346      1.19278634
O      -3.97367735      0.45432136      1.06190750
C      -1.41246177      0.96865752      0.22827742
C      -0.07643343      1.18487965     -0.12140298
N       0.31467464      2.45067732     -0.59867500
H       3.89894358     -0.27165745     -1.26334625
H       2.55041611     -1.35870163     -1.61729360
H       3.21343549     -1.22325483      0.05854831
H       1.04527132     -2.04626157      0.14897746
H      -1.26716751     -2.39967585      0.83238117
H      -2.10998568      1.80272168      0.21373169
H       1.33049111      2.53960603     -0.60710813
H      -0.15026164      3.23309093     -0.15140238
