20
COCCOCCO
C      -3.62916313     -0.13868761     -0.71341815
O      -2.49970599     -0.23175446      0.14514904
C      -1.28271715     -0.28937676     -0.59739601
C      -0.10723632     -0.38847074      0.36936749
O       1.11231751     -0.44063329     -0.37279791
C       2.26875290     -0.55887724      0.46740064
C       2.72371793      0.81802079      0.94760638
O       2.99240492      1.65740714     -0.17426589
H      -4.52948050     -0.09776054     -0.09455497
H      -3.69056265     -1.01769848     -1.36224974
H      -3.57775541      0.77290799     -1.31655510
H      -1.28933134     -1.15937341     -1.26499134
H      -1.17786578      0.60843525     -1.21837755
H      -0.21122167     -1.29083452      0.98364411
H      -0.11115077      0.47584247      1.04233580
H       3.05447416     -0.99742377     -0.15675051
H       2.07949919     -1.23862854      1.30517810
H       3.63636039      0.73830812      1.54483347
H       1.95405840      1.30888176      1.54921441
H       2.28460531      1.46971583     -0.82096782
