37
CCCSP(=S)(OCC)Oc1ccc(SC)cc1
C      -2.79976877      1.80142752     -1.82776635
C      -1.96748163      1.31952344     -0.64819107
C      -2.83098768      1.14523129      0.59655280
S      -1.84696493      0.69505882      2.04945382
P      -1.13242059     -1.26082526      1.67479694
S      -0.67746885     -2.39028901      3.20565420
O      -2.29681339     -1.94108502      0.75528595
C      -2.08586309     -3.23125944      0.20357457
C      -2.95605257     -3.36997977     -1.02897022
O       0.04056471     -1.15647606      0.55801223
C       1.23184838     -0.50048180      0.67537618
C       2.01073701     -0.46694894     -0.48261586
C       3.24708379      0.18426521     -0.48717154
C       3.71286262      0.81431982      0.66830404
S       5.29006850      1.64301175      0.71353156
C       5.04775607      2.85182479     -0.61507447
C       2.93728032      0.76187921      1.82979308
C       1.69790073      0.11059606      1.83457513
H      -2.16871876      1.91602842     -2.71468276
H      -3.26214814      2.77002930     -1.61257585
H      -3.59343458      1.08586705     -2.06557928
H      -1.16633144      2.04476313     -0.46225488
H      -1.49740202      0.37071303     -0.92609562
H      -3.34623100      2.08360905      0.82749155
H      -3.59974764      0.38346476      0.43311182
H      -2.36605481     -3.98541894      0.94498124
H      -1.03505063     -3.37281966     -0.06665297
H      -2.83418320     -4.35676388     -1.48415827
H      -4.01137506     -3.22544676     -0.77496846
H      -2.69912318     -2.60463443     -1.76895073
H       1.65990072     -0.95411403     -1.38915808
H       3.84299174      0.17926819     -1.39593787
H       5.90797660      3.52605322     -0.64443123
H       4.96808361      2.35506812     -1.58541795
H       4.14760860      3.44582584     -0.43424547
H       3.29128134      1.22872820      2.74708431
H       1.13967720      0.09998677      2.76490547
