20
Cc1ccc([N+](=O)[O-])c(C)c1
C       2.97759060     -0.54998614     -0.06274334
C       1.55888950     -0.05974802     -0.01651510
C       1.28676831      1.28894733      0.23997627
C      -0.03081569      1.73935442      0.30668361
C      -1.08265110      0.82957560      0.12689829
N      -2.44128712      1.35916516      0.18794840
O      -3.22379306      1.04233234     -0.71820182
O      -2.71269521      2.10968778      1.13595326
C      -0.84307958     -0.53829978     -0.09674690
C      -1.93988216     -1.55057359     -0.27462033
C       0.49444477     -0.96286849     -0.17246331
H       3.07611877     -1.39388718     -0.75360874
H       3.65226681      0.23755869     -0.41458368
H       3.29540445     -0.86871304      0.93469648
H       2.10093493      1.99652830      0.38490465
H      -0.22831340      2.79255562      0.49603720
H      -2.37492203     -1.46750847     -1.27522815
H      -2.72099838     -1.41800453      0.48084292
H      -1.55957082     -2.57126678     -0.15684985
H       0.71559039     -2.01484920     -0.35237986
