20
NC1CCCCC1
N       2.28512483     -0.17547111      0.99388852
C       1.11640137     -0.18905331      0.11612458
C       0.54197225      1.22638671     -0.00851818
C      -0.72708005      1.23888801     -0.85906180
C      -1.77013113      0.25941285     -0.32837246
C      -1.20110420     -1.14994174     -0.19094412
C       0.06743820     -1.16501673      0.66031805
H       3.00073644      0.43621555      0.60348008
H       2.69432673     -1.10794813      1.03535231
H       1.43627059     -0.53018815     -0.87664912
H       1.28352746      1.89830845     -0.45795415
H       0.30979794      1.62933667      0.98630458
H      -1.14776841      2.25057684     -0.87816328
H      -0.47472500      0.97802354     -1.89426664
H      -2.63628639      0.24360623     -0.99941872
H      -2.12932250      0.60408959      0.64916332
H      -0.97671161     -1.55171841     -1.18673839
H      -1.95330318     -1.80889248      0.25720628
H      -0.19266171     -0.90280350      1.69450265
H       0.47349838     -2.18381089      0.68374649
