9
OCCCl
O      -1.42987644      0.65085952      0.31961654
C      -0.59886092     -0.39886591     -0.16830767
C       0.85466537     -0.17668072      0.22475432
Cl      1.49916999      1.27748278     -0.58527081
H      -1.06850294      1.48460632     -0.03548457
H      -0.96206429     -1.33413744      0.26851452
H      -0.71974295     -0.46532616     -1.25461868
H       1.47535974     -1.02663791     -0.07074447
H       0.94985243     -0.01130049      1.30154082
