17
CC(C)CC(=O)O
C      -0.93071085     -1.33594519     -0.05772811
C      -0.57010201      0.13917641     -0.25142270
C      -1.74535914      1.01925419      0.17826119
C       0.68964310      0.51879324      0.54175314
C       1.94811582     -0.07471505     -0.03663812
O       2.10702799     -0.54186809     -1.15080823
O       2.97723373     -0.01363191      0.83171049
H      -1.82969226     -1.59221487     -0.62862359
H      -1.12543052     -1.56239223      0.99619415
H      -0.12462247     -1.99190151     -0.40074162
H      -0.39333333      0.31060914     -1.32077043
H      -1.52332858      2.07730165      0.00336452
H      -1.97014195      0.89116628      1.24266812
H      -2.64701481      0.76994435     -0.39121640
H       0.82250241      1.60704705      0.53823594
H       0.58865177      0.18710712      1.58192611
H       3.72656108     -0.40773058      0.33768918
