39
COc1cc(OC)n2nc(S(=O)(=O)Nc3c(Cl)ccc(C)c3Cl)nc2n1
C      -5.75166046     -2.37911336      1.20727619
O      -5.57395993     -1.41276214      0.16408636
C      -4.39495022     -0.74519006      0.17029673
C      -4.38913513      0.20305334     -0.96629174
C      -3.27407564      0.94938096     -1.09483990
O      -3.05577838      1.89582093     -2.08049569
C      -4.07788651      2.11272535     -3.04511260
N      -2.23569381      0.76263918     -0.15692689
N      -1.03370980      1.38594907     -0.07535802
C      -0.47165733      0.79327796      0.99426911
S       1.15538706      1.19747782      1.56447217
O       1.62332966      0.04121612      2.30146149
O       1.00100377      2.49399222      2.19504554
N       2.16904279      1.45889433      0.20639466
C       3.16173067      0.42735549     -0.00884528
C       2.83479621     -0.77462171     -0.65362780
Cl      1.28216900     -1.04591733     -1.36143999
C       3.78574048     -1.78947540     -0.77556957
C       5.06685730     -1.62107530     -0.24826386
C       5.42024079     -0.43316747      0.40748489
C       6.80824318     -0.28978780      0.96911779
C       4.45700602      0.58638204      0.52696398
Cl      4.86397902      2.07585103      1.32574470
N      -1.25650369     -0.15673795      1.60852046
C      -2.35046958     -0.17208343      0.88399123
N      -3.46560670     -0.94114152      1.04454270
H      -4.99530152     -3.16647311      1.13228839
H      -5.71815298     -1.89436497      2.18784970
H      -6.73801322     -2.83353302      1.07957283
H      -5.25427397      0.24369937     -1.61015514
H      -4.26813526      1.20345587     -3.62433628
H      -3.73081635      2.88669798     -3.73595319
H      -4.99548870      2.47216761     -2.56828977
H       2.57558163      2.38961878      0.33061590
H       3.53377921     -2.72017478     -1.27939090
H       5.78845197     -2.43021604     -0.35152518
H       7.41313925     -1.18233164      0.77591195
H       7.32221253      0.55874909      0.50634973
H       6.76857863     -0.15023749      2.05416525
