87
CC(=O)N(O)CCCCCNC(=O)CCC(=O)N(O)CCCCCNC(=O)CCC(=O)N(O)CCCCCN
C      11.53402062     -3.38746723      2.19188480
C      10.40930249     -2.70703199      2.93132684
O       9.60729747     -3.35866218      3.59954418
N      10.36179265     -1.33155102      2.81633042
O      11.06590326     -0.75172377      1.73734860
C       9.17773436     -0.56214777      3.18572604
C       7.94506687     -0.80941011      2.30699976
C       8.16155801     -0.45059214      0.83703481
C       6.84807099     -0.45766307      0.05200520
C       7.10988807     -0.28101227     -1.44191313
N       5.87978400     -0.15659092     -2.18823306
C       5.30949595      1.06312320     -2.46140977
O       5.79327289      2.13836207     -2.12557442
C       4.00964444      0.97486185     -3.22937686
C       2.81252769      0.81686969     -2.30062408
C       2.61526862     -0.61888139     -1.84240386
O       3.45889178     -1.50353202     -2.02968744
N       1.44952690     -0.88524866     -1.14519062
O       1.27473364     -2.26335942     -0.84144049
C       0.15588823     -0.23028695     -1.33561868
C      -0.48376018     -0.60404830     -2.67676858
C      -1.77907398      0.17263414     -2.92002361
C      -2.35459113     -0.14051732     -4.30463477
C      -3.57818471      0.70617707     -4.65657777
N      -4.76780481      0.29950896     -3.93735731
C      -5.16073587      0.89195196     -2.75933542
O      -4.56863371      1.83669682     -2.24480600
C      -6.44138447      0.30636561     -2.19520788
C      -6.58707020      0.60152712     -0.70695978
C      -5.68077944     -0.28616922      0.12202980
O      -5.02384035     -1.21048192     -0.36475443
N      -5.62668590     -0.01591809      1.47465844
O      -4.87657261     -0.95508441      2.22903994
C      -6.61505783      0.67321243      2.29692109
C      -7.82744146     -0.20825717      2.60690243
C      -8.81473082      0.44327049      3.57939315
C      -9.47480005      1.70736734      3.01661917
C     -10.58560955      2.26539969      3.90787448
N     -10.11997011      2.66211356      5.23002350
H      11.24554192     -3.53430034      1.14781846
H      11.73432314     -4.35921527      2.65131487
H      12.45136893     -2.79463614      2.24188410
H      11.76703319     -0.25401245      2.20087951
H       9.44734405      0.49937870      3.17753259
H       8.92354679     -0.83277685      4.21638368
H       7.63927609     -1.86051043      2.37621087
H       7.11740635     -0.21213088      2.70930339
H       8.62045134      0.54077067      0.75972297
H       8.85681617     -1.16611434      0.38517903
H       6.31136408     -1.40121903      0.21759020
H       6.19179107      0.34183912      0.41979278
H       7.73371669      0.60159902     -1.62250335
H       7.63814225     -1.15581902     -1.83946341
H       5.28788227     -0.98429746     -2.27433748
H       4.06892013      0.16908726     -3.97156280
H       3.91261809      1.90882447     -3.79384481
H       2.90997513      1.45584272     -1.41221253
H       1.92259698      1.13329805     -2.85768363
H       2.13147105     -2.65902187     -1.11832817
H      -0.49473985     -0.52225079     -0.50394116
H       0.30686530      0.85299604     -1.27495870
H       0.22066660     -0.40956383     -3.49480977
H      -0.69547849     -1.68023297     -2.69685981
H      -2.50617954     -0.08569481     -2.13991797
H      -1.58187975      1.24981290     -2.84351783
H      -1.58109423      0.05013293     -5.06016084
H      -2.60385496     -1.20686900     -4.36664808
H      -3.38082002      1.76951277     -4.48721588
H      -3.81054622      0.57485855     -5.71886055
H      -5.20956966     -0.56356512     -4.21825446
H      -6.48572711     -0.77261233     -2.39531274
H      -7.27091982      0.78126770     -2.73757583
H      -6.36925853      1.65194483     -0.48788792
H      -7.62032101      0.39144338     -0.41153472
H      -4.51407629     -1.53914440      1.52641765
H      -6.11749794      0.98550684      3.22099965
H      -6.93136862      1.57201540      1.76357531
H      -8.34434802     -0.47869470      1.67931700
H      -7.48241108     -1.15141925      3.04799383
H      -8.29010459      0.67370448      4.51417040
H      -9.59570607     -0.28975507      3.81917492
H      -8.72334490      2.48487394      2.85867372
H      -9.90699964      1.47958069      2.03828246
H     -11.38204189      1.52430429      4.01862306
H     -11.03103821      3.14160670      3.42009674
H      -9.30897018      3.27292888      5.14610693
H      -9.81376274      1.84499837      5.75658362
