50
CCCCCCCCOc1ccc(C(=O)c2ccccc2)c(O)c1
C       5.22474757      1.84308865     -2.49025682
C       5.15389778      0.51715980     -1.74818537
C       5.59025106      0.67023414     -0.29089098
C       5.64785001     -0.65714694      0.47157508
C       4.33011304     -1.43490543      0.55569536
C       3.20710464     -0.65099818      1.23866967
C       1.95774234     -1.49285067      1.50471817
C       1.27172393     -1.98435883      0.23067901
O       0.06754273     -2.68285677      0.55067951
C      -1.10710872     -1.98708111      0.60106266
C      -1.24723134     -0.59944819      0.55389868
C      -2.51837872     -0.01255791      0.61986503
C      -3.66314738     -0.81215954      0.72673835
C      -5.02334577     -0.21720038      0.79091328
O      -5.91585560     -0.84519004      1.36029304
C      -5.34332084      1.09231429      0.17768921
C      -6.18948608      1.96471498      0.87065670
C      -6.52137532      3.20051498      0.31442491
C      -6.02123144      3.55847721     -0.93782541
C      -5.19685267      2.67939094     -1.64130856
C      -4.86120609      1.44186419     -1.08920998
C      -3.51148755     -2.20126624      0.81490534
O      -4.57017048     -3.05563633      0.97713526
C      -2.24697041     -2.78259037      0.74131597
H       4.57174889      2.58817249     -2.02461638
H       4.90566652      1.71331747     -3.52914853
H       6.24642282      2.23611046     -2.49564390
H       5.79525168     -0.21313179     -2.25477919
H       4.12612910      0.14229804     -1.80084927
H       6.59072070      1.12033112     -0.26199465
H       4.92454853      1.37165461      0.22515091
H       6.00637147     -0.45632242      1.48892798
H       6.40106801     -1.30277590      0.00283877
H       4.51674456     -2.35803192      1.11862923
H       4.02232163     -1.74325372     -0.44902026
H       3.57119975     -0.26415990      2.19833684
H       2.92783526      0.21718562      0.63090585
H       2.20967239     -2.35447443      2.13571537
H       1.25401923     -0.89690226      2.09772971
H       1.10752094     -1.18437761     -0.50030900
H       1.91759800     -2.71626610     -0.26680918
H      -0.38779026      0.05930963      0.48358197
H      -2.58862378      1.07225948      0.60540746
H      -6.59199399      1.68254499      1.84137842
H      -7.17645775      3.88028072      0.85393744
H      -6.28610569      4.51971598     -1.37233049
H      -4.82596532      2.95494820     -2.62574835
H      -4.24307313      0.75620909     -1.66323811
H      -5.35905442     -2.51238961      1.20363709
H      -2.14957983     -3.86376447      0.80168004
