13
OCc1ccco1
O      -2.37674979      0.54145487      0.54638594
C      -1.70605523     -0.34467495     -0.34149609
C      -0.25093774     -0.17950715     -0.12806042
C       0.75052082     -1.02108751      0.30835221
C       1.94366835     -0.25887622      0.30042062
C       1.59428728      0.99703711     -0.13679907
O       0.26307894      1.05679161     -0.39830171
H      -1.91352471      1.39570508      0.46823155
H      -1.98498545     -0.09456712     -1.36926101
H      -2.03203958     -1.36587950     -0.12561283
H       0.63136582     -2.05532125      0.60030391
H       2.93578255     -0.58267057      0.58181299
H       2.14558873      1.91159561     -0.30597608
