17
Cc1ccccc1N
C      -1.82322544     -0.79856965     -0.80504766
C      -0.45387652     -0.43385542     -0.30172358
C       0.59831382     -1.35211890     -0.46262330
C       1.89047288     -1.03784374     -0.04434997
C       2.14851589      0.20387434      0.52429941
C       1.10919540      1.12005236      0.69262845
C      -0.20646790      0.79644776      0.33449094
N      -1.19496084      1.79008471      0.42286680
H      -2.52584334     -0.87317622      0.03108564
H      -2.18060658     -0.04808896     -1.51756091
H      -1.81890961     -1.76384893     -1.32252519
H       0.41765516     -2.31699365     -0.93115631
H       2.69642377     -1.75359643     -0.18140489
H       3.15847368      0.46705993      0.82584006
H       1.33515558      2.09708411      1.11159453
H      -2.13897879      1.42403412      0.47885579
H      -1.01133717      2.47945457      1.14473020
