16
CCC(C)C=O
C       2.02577124      0.26411235      0.24352727
C       0.76662012     -0.29618688     -0.40641845
C      -0.47967299     -0.11868769      0.47049519
C      -1.63532173     -0.96720184     -0.05489427
C      -0.95644774      1.32176773      0.53878713
O      -0.49559483      2.24665188     -0.12172798
H       1.94976433      1.34209459      0.41194573
H       2.89207086      0.08627095     -0.40172333
H       2.21739043     -0.22093028      1.20606343
H       0.93192657     -1.36386657     -0.59637130
H       0.62248073      0.18197518     -1.38286420
H      -0.25237271     -0.42963567      1.49728839
H      -2.52653952     -0.84712583      0.57101947
H      -1.90884511     -0.67636176     -1.07540554
H      -1.36985906     -2.02944920     -0.06090445
H      -1.78137062      1.50657305      1.24950165
