16
c1ccc2[nH]ccc2c1
C      -2.10300032     -0.68732595      0.08454839
C      -2.08457746      0.70538523      0.12625498
C      -0.87872307      1.41241457      0.08735311
C       0.30480355      0.66926369      0.00518221
N       1.61575158      1.08660778     -0.04786342
C       2.45451415      0.00612319     -0.12304930
C       1.67790964     -1.13010785     -0.11883791
C       0.31679414     -0.72520545     -0.03810419
C      -0.91006385     -1.41513883      0.00237574
H      -3.05221543     -1.21636296      0.11601182
H      -3.02254857      1.25228051      0.19009050
H      -0.86837893      2.49673247      0.12002489
H       1.90928563      2.05328041     -0.03301099
H       3.52675957      0.13847687     -0.17283292
H       2.04602571     -2.14625739     -0.16842539
H      -0.93233632     -2.50016630     -0.02971751
