43
Cc1ccc(S(=O)(=O)NC(=O)NN2CC3CCCC3C2)cc1
C       6.23367175     -2.03397835     -0.31623509
C       5.21791035     -0.99476456      0.05843533
C       4.79538956     -0.04586735     -0.88277819
C       3.82893656      0.90360383     -0.54555860
C       3.26775040      0.89148088      0.73420598
S       2.06635293      2.12131265      1.17587763
O       2.29454253      3.27082430      0.32216820
O       2.05032254      2.26815902      2.61438818
N       0.64888530      1.45841817      0.67068023
C       0.05021454      0.30643472      1.15153647
O       0.51507145     -0.40197914      2.03202087
N      -1.13980131     -0.00187088      0.52962693
N      -1.65999786      0.77938584     -0.52639109
C      -2.07191138     -0.04755317     -1.67059415
C      -3.55138961     -0.35101996     -1.48444011
C      -3.87216331     -1.58039034     -0.62004141
C      -4.46970371     -1.05629584      0.68020279
C      -5.06881562      0.28438133      0.29605959
C      -4.08855571      0.85936541     -0.71951969
C      -2.85622346      1.53657244     -0.10856938
C       3.68034154     -0.04715221      1.68195140
C       4.64538185     -0.99514557      1.33784764
H       6.93528800     -1.64364105     -1.06089764
H       5.73240215     -2.91471745     -0.72917068
H       6.82204436     -2.33753318      0.55603811
H       5.22402011     -0.03697663     -1.88283541
H       3.52427718      1.64553136     -1.27987322
H       0.17579767      1.91457487     -0.10226569
H      -1.58579387     -0.86004329      0.83369088
H      -1.45945931     -0.94757079     -1.79762632
H      -1.94064060      0.55427512     -2.57878347
H      -4.04000978     -0.45829359     -2.46007543
H      -4.62489205     -2.18835469     -1.13760131
H      -3.00876923     -2.22915099     -0.44379355
H      -5.21819751     -1.73969134      1.09261975
H      -3.69253607     -0.92265308      1.43924803
H      -6.04322096      0.12579793     -0.18223162
H      -5.22259674      0.93544934      1.16167245
H      -4.59502199      1.56236339     -1.39120281
H      -2.76917220      2.54945713     -0.52053850
H      -2.92680213      1.65445840      0.97951556
H       3.24694726     -0.05431172      2.68042765
H       4.95012637     -1.73289094      2.07735278
