138
CO[C@H]1C[C@H](OC2/C(C)=C/C[C@@H]3C[C@@H](C[C@]4(C=C[C@H](C)[C@@H](C5CCCCC5)O4)O3)OC(=O)[C@@H]3C=C(C)[C@@H](O)[C@H]4OC/C(=C\C=C\[C@@H]2C)[C@@]34O)O[C@@H](C)C1O[C@H]1C[C@H](OC)[C@@H](O)[C@H](C)O1
C       6.92766175     -1.59645408     -1.37619169
O       5.60957384     -1.08871352     -1.53194119
C       5.55951418      0.23802585     -2.06848048
C       4.23370569      0.36807310     -2.80483054
C       3.04750751      0.35762979     -1.84270329
O       1.91401657      0.61060705     -2.66641077
C       0.64840850      0.27586548     -2.08935394
C      -0.41129082      1.00975422     -2.92117774
C      -0.35767623      0.76848831     -4.41548087
C      -1.38262393      1.81761804     -2.44030393
C      -1.68335450      2.21296317     -1.01380908
C      -2.87472919      1.45235295     -0.38135439
C      -2.59223223     -0.04093587     -0.31797706
C      -3.79271324     -0.88195464      0.07436603
C      -5.01715591     -0.45368673     -0.72018009
C      -5.22417416      1.06293045     -0.64854114
C      -6.33832847      1.43283683     -1.58115639
C      -7.36547803      2.21827706     -1.23492730
C      -7.41915790      2.90028733      0.10920354
C      -7.77034931      4.37034084     -0.15657380
C      -6.08294560      2.72309836      0.90400145
C      -6.24206012      2.85455149      2.45388935
C      -4.88451555      2.67477973      3.18865613
C      -4.32867478      3.98204672      3.74414590
C      -5.28296960      4.61563522      4.75556236
C      -6.75376985      4.36739334      4.42412787
C      -6.96191283      4.12607364      2.93228248
O      -5.55460010      1.39520155      0.70099294
O      -4.06232331      1.74198233     -1.12189137
O      -3.43752143     -2.23598745     -0.29162021
C      -4.09792817     -3.25603669      0.32143097
O      -4.94625425     -3.10911545      1.19163945
C      -3.67930812     -4.58466348     -0.31071501
C      -4.88701140     -5.50400098     -0.31277414
C      -4.94156048     -6.70425941      0.29169292
C      -6.19446344     -7.53732805      0.28240729
C      -3.74815956     -7.23562536      1.03688793
O      -3.70057365     -8.65725661      0.90677184
C      -2.41740195     -6.67187497      0.51401449
O      -2.13464419     -7.24391665     -0.78512303
C      -1.21808906     -6.35645198     -1.43404315
C      -1.21568986     -5.07611887     -0.64382346
C      -0.24257312     -4.17002824     -0.84631956
C       0.04032796     -2.97477282     -0.09719141
C       0.42234031     -1.78622300     -0.59458958
C       0.37713536     -1.28199763     -2.03903246
C       1.24230824     -2.08444514     -3.01717092
C      -2.37777474     -5.14852204      0.33152012
O      -2.06267070     -4.54134432      1.57951391
O       3.16686953      1.36775115     -0.84354606
C       4.37821764      1.29564580     -0.07511676
C       4.33581943      0.14187957      0.92416164
C       5.61506853      1.34900989     -0.99790269
O       6.82736560      1.35535334     -0.23551922
C       7.92823774      1.92166612     -0.95102152
C       8.14954424      3.36477237     -0.53459238
C       8.62562713      3.47582469      0.91135894
O       8.93228597      4.86665135      1.09945133
C       9.24983577      5.23091316      2.43214468
C       9.83375060      2.54151922      1.14831321
O      10.14957119      2.45744508      2.54384811
C       9.54688396      1.12784643      0.60647977
C      10.79110803      0.24126284      0.65914963
O       9.10790378      1.15114728     -0.75166730
H       6.85529984     -2.61098461     -0.97138691
H       7.51038044     -0.99940854     -0.67289154
H       7.43464853     -1.64927180     -2.34515433
H       6.37327097      0.35525026     -2.79396887
H       4.11660083     -0.44965092     -3.52958888
H       4.23091070      1.30185582     -3.38327118
H       2.95649648     -0.61915341     -1.35883921
H       0.62685667      0.70103413     -1.08112353
H       0.66968435      0.72516711     -4.78545235
H      -0.84728258     -0.17937787     -4.65431211
H      -0.85319174      1.56352163     -4.97857850
H      -2.08999168      2.24847368     -3.15082515
H      -1.91782076      3.28423689     -1.01860492
H      -0.80263222      2.09945175     -0.37487823
H      -3.00348986      1.83993204      0.63451334
H      -1.77426486     -0.22989963      0.38803918
H      -2.25636997     -0.40095361     -1.29378331
H      -3.96497002     -0.80570612      1.15602949
H      -5.89871492     -0.98115598     -0.33825273
H      -4.88811672     -0.77750114     -1.76224197
H      -6.30501941      1.01732172     -2.58331786
H      -8.16347488      2.40009368     -1.95030435
H      -8.23980134      2.43074813      0.66676446
H      -6.91956881      4.91413715     -0.58536187
H      -8.60671705      4.45643606     -0.86048982
H      -8.08961763      4.89691132      0.74317241
H      -5.33454660      3.45086050      0.55776251
H      -6.85429797      1.99661860      2.76955624
H      -5.02622559      1.97419803      4.01815846
H      -4.13438087      2.21609350      2.53857160
H      -3.35707630      3.80843025      4.21964587
H      -4.15302706      4.68129462      2.91781377
H      -5.08678493      5.69417091      4.80157298
H      -5.07908276      4.22037221      5.75645033
H      -7.11298853      3.49602564      4.98169628
H      -7.35533487      5.22177103      4.75591854
H      -6.60076652      5.00193829      2.37957963
H      -8.03830268      4.02497748      2.74820062
H      -3.50583491     -4.38403738     -1.38160780
H      -5.76921506     -5.13124274     -0.83394112
H      -7.03760107     -7.00086408     -0.16475415
H      -6.03803541     -8.44947728     -0.30497981
H      -6.48078415     -7.81721209      1.30172773
H      -3.87179295     -7.00636650      2.10312096
H      -3.33319239     -8.81626156      0.01212407
H      -1.61863496     -7.01544893      1.18781095
H      -1.55834636     -6.20201845     -2.46158385
H      -0.23146890     -6.83130577     -1.44127887
H       0.48674890     -4.37721618     -1.62964027
H       0.01958078     -3.07048825      0.98565539
H       0.66616806     -1.03111788      0.15459728
H      -0.66326465     -1.43412047     -2.35544876
H       0.74751316     -3.01850967     -3.29430999
H       2.21985199     -2.34346603     -2.59167262
H       1.39949798     -1.54220731     -3.95708785
H      -1.16069337     -4.80523765      1.82307831
H       4.39224268      2.20858069      0.53414984
H       5.23262556      0.12876245      1.55123270
H       4.23814936     -0.83075371      0.44722034
H       3.46037506      0.24010112      1.57610083
H       5.54454493      2.31374594     -1.52704476
H       7.73969354      1.90085279     -2.03027660
H       8.90231674      3.82306752     -1.19093387
H       7.23137231      3.95319059     -0.65406918
H       7.80702930      3.20846996      1.59220015
H       8.53180301      4.80780411      3.14385225
H       9.20388624      6.32180972      2.50791635
H      10.26904318      4.92514880      2.68240201
H      10.71306143      2.96776131      0.64679767
H       9.37834803      2.09055028      3.00759211
H       8.78016318      0.63911959      1.22584500
H      10.53455900     -0.78005440      0.35891298
H      11.55498764      0.59178840     -0.04277209
H      11.21908322      0.20460710      1.66329903
