22
CCOC(=O)c1ccc([O-])cc1.[Na+]
C      -3.50937718     -0.12330987      1.32730841
C      -2.81429682      0.12380125      0.00252055
O      -1.40345316      0.14795945      0.23679018
C      -0.65676297      0.36321542     -0.87897219
O      -1.10774887      0.52693176     -2.00359076
C       0.79259505      0.37337943     -0.54859601
C       1.70867475      0.58204682     -1.57813757
C       3.08298407      0.59757866     -1.30096785
C       3.60964358      0.41002756     -0.00991036
O       4.86025286      0.42611291      0.23036225
C       2.64869378      0.20318791      0.99628829
C       1.26867691      0.18266435      0.74813402
Na      0.00000000      0.00000000      0.00000000
H      -3.25745511      0.66244938      2.04720251
H      -3.18071116     -1.07225716      1.76389533
H      -4.59507523     -0.15043698      1.19930870
H      -3.06022391     -0.68127012     -0.69904859
H      -3.13839702      1.08568030     -0.41047704
H       1.37509882      0.73414782     -2.59982694
H       3.78074606      0.76247771     -2.12165519
H       2.99968567      0.05202915      2.01692650
H       0.59644986      0.01666882      1.58244576
