20
COc1ccc(OC)cc1
C       3.68415772      0.21023549      0.05493433
O       2.55354215      1.07227369      0.08317421
C       1.32329348      0.47698151      0.04593398
C       1.07421264     -0.89240069     -0.01695793
C      -0.24365434     -1.36261588     -0.04942669
C      -1.32329361     -0.47698113     -0.01969836
O      -2.55354212     -1.07227339     -0.05693590
C      -3.68415770     -0.21023568     -0.02868781
C      -1.07421278      0.89240101      0.04319229
C       0.24365423      1.36261620      0.07566128
H       3.70140757     -0.44725964      0.93043990
H       3.71732751     -0.36723884     -0.87486685
H       4.58177947      0.83510258      0.09054732
H       1.87566301     -1.62240419     -0.04224184
H      -0.43014864     -2.43287136     -0.09850831
H      -4.58177944     -0.83510348     -0.06429065
H      -3.71731954      0.36724097      0.90111180
H      -3.70141525      0.44725666     -0.90419454
H      -1.87566313      1.62240447      0.06847533
H       0.43014874      2.43287170      0.12474292
