11
O=C1CCC(=O)O1
O      -1.73881685      1.88406069      0.15251946
C      -0.79688913      1.11698962      0.03734588
C      -0.90854952     -0.36714335     -0.02779894
C       0.51710939     -0.82615125      0.10536272
C       1.30031734      0.41769751     -0.13710011
O       2.50813477      0.46118393     -0.30495949
O       0.49229954      1.50076169     -0.09754918
H      -1.33342978     -0.65374719     -0.99422125
H      -1.52947559     -0.74846102      0.78657875
H       0.72769627     -1.19281495      1.11424727
H       0.76160358     -1.59237567     -0.63442512
