45
CC(=O)c1cc2c(cc1C)C(C)(C)C(C)CC2(C)C
C       4.43944158      1.80747626     -0.03829749
C       3.95983871      0.62366384     -0.83901866
O       4.66678617      0.11035646     -1.70208852
C       2.58790977      0.10252318     -0.57090465
C       1.55724256      1.01480416     -0.30248111
C       0.22956912      0.60196309     -0.04328495
C      -0.07436784     -0.77434010     -0.11556129
C       0.98473386     -1.67934860     -0.37263479
C       2.30904236     -1.26652046     -0.59353323
C       3.36081587     -2.30563600     -0.86758899
C      -1.50128529     -1.33152859      0.10009105
C      -1.51562605     -2.08438330      1.45168904
C      -1.85440496     -2.34410788     -1.02282514
C      -2.57560028     -0.19275790      0.05788176
C      -3.97026939     -0.59743528      0.56195713
C      -2.10702755      1.02965016      0.85143280
C      -0.83039739      1.66408042      0.26255681
C      -1.16560683      2.42666562     -1.03823523
C      -0.33268274      2.68946528      1.31096411
H       4.22681598      2.73081102     -0.58263270
H       5.51842608      1.71628370      0.11882210
H       3.96738152      1.83492271      0.94767914
H       1.78555584      2.07777033     -0.32069612
H       0.78157036     -2.74896826     -0.39583379
H       4.25775844     -2.11982082     -0.26800963
H       3.00867133     -3.30844855     -0.60183696
H       3.61958971     -2.31284384     -1.93082535
H      -0.76738037     -2.88534335      1.47889242
H      -2.48286491     -2.56138019      1.64096603
H      -1.29563074     -1.41623619      2.29115297
H      -1.21112546     -3.22991759     -1.00973337
H      -2.87802982     -2.71881406     -0.92765513
H      -1.75792078     -1.88283076     -2.01285559
H      -2.70875750      0.11166003     -0.98876183
H      -4.68324353      0.21792304      0.39320458
H      -4.35941955     -1.47378066      0.03784721
H      -3.97075397     -0.80793306      1.63624855
H      -2.90660232      1.78261417      0.88162072
H      -1.93536545      0.73866818      1.89650673
H      -1.46736950      1.75112442     -1.84587581
H      -0.30200421      2.99327545     -1.40619483
H      -1.97901460      3.14341556     -0.87775221
H      -1.13745929      3.37605795      1.59995728
H       0.02081135      2.18748727      2.21944158
H       0.48824970      3.30971316      0.93620535
