9
c1c[nH]cn1
C       1.04029221     -0.57874096     -0.48995831
C       0.69057811      0.72539211     -0.23154409
N      -0.63957440      0.67993816      0.08235731
C      -1.03546391     -0.62498950      0.00319628
N      -0.04018917     -1.40926824     -0.34103724
H       2.01068142     -0.96433893     -0.77492312
H       1.25267396      1.64794164     -0.24346699
H      -1.22835172      1.46352384      0.32871243
H      -2.05064651     -0.93945812      0.20537875
