8
FC(F)(F)C(Cl)Cl
F      -1.34572086     -1.22778829      0.04741260
C      -0.79067248      0.00730208     -0.02787539
F      -1.35965437      0.74317319      0.95901403
F      -1.16869216      0.54987853     -1.20674874
C       0.72428610     -0.05832856      0.13718276
Cl      1.47503204      1.56628167      0.10439189
Cl      1.49371818     -1.07651838     -1.11793313
H       0.97170354     -0.50400023      1.10455598
