11
FC(F)(F)C(F)(F)C(F)(F)F
F       2.28117733      0.57124580      0.53755734
C       1.09485641     -0.08742826      0.57417126
F       0.66089667     -0.02989347      1.85477894
F       1.36577754     -1.38562874      0.30423711
C       0.10900000      0.50979791     -0.39619335
F       0.59868228      0.47212066     -1.66993823
F      -0.10671580      1.82883450     -0.11826539
C      -1.17250546     -0.27574128     -0.29193158
F      -1.00566031     -1.58258367     -0.60163042
F      -1.71054426     -0.22685847      0.94891989
F      -2.11496440      0.20613503     -1.14170556
