31
Cc1ccn2nc(S(=O)(=O)Nc3c(F)cccc3F)nc2n1
C       4.85162962      2.24312931     -1.29305631
C       3.95111430      1.09516508     -0.90924008
C       4.31798446     -0.26303619     -1.43019150
C       3.49889633     -1.26015527     -1.07047825
N       2.39722654     -0.99822113     -0.26796921
N       1.47180716     -1.86065800      0.19668014
C       0.65505397     -1.04779633      0.89473394
S      -0.78157860     -1.60152298      1.76704604
O      -1.40006164     -2.61873248      0.93990927
O      -0.28696369     -1.91179791      3.09515588
N      -1.87083891     -0.31775339      1.97424118
C      -2.87909717     -0.11756294      0.96748747
C      -2.60796228     -0.02222212     -0.39911622
F      -1.35774700     -0.14826998     -0.86335230
C      -3.62819579      0.21760450     -1.32129495
C      -4.94222776      0.38350018     -0.88268862
C      -5.22750142      0.31598131      0.47997614
C      -4.19781871      0.07528607      1.38816029
F      -4.48820572      0.02127295      2.69786904
N       1.03664735      0.27978242      0.91424826
C       2.12241306      0.29857758      0.17701517
N       2.92154347      1.35506972     -0.15632955
H       4.26905713      2.99094200     -1.83897917
H       5.68007604      1.91122243     -1.92388460
H       5.25864699      2.70030821     -0.38643530
H       5.19257386     -0.39565663     -2.05161398
H       3.63806886     -2.29051120     -1.36936412
H      -2.22814742     -0.33301989      2.93130599
H      -3.38609067      0.27793874     -2.37862186
H      -5.73797288      0.57054653     -1.59997483
H      -6.24232948      0.45058940      0.84242659
