29
Cc1ccc2nc(-c3ccc(N)cc3)sc2c1
C       5.74260578     -0.24604322     -0.68247984
C       4.30615027     -0.17568509     -0.24929413
C       3.97756096     -0.25328690      1.10627350
C       2.64197056     -0.21985290      1.52424816
C       1.61093163     -0.11771729      0.57033744
N       0.25479200     -0.07460285      0.84137378
C      -0.44384178      0.01618353     -0.27481659
C      -1.92132097      0.08247296     -0.31067102
C      -2.67070944      0.16788607     -1.49363200
C      -4.07137724      0.22943760     -1.45939990
C      -4.75959607      0.24919459     -0.24673927
N      -6.15642940      0.19049365     -0.22520619
C      -4.02912650      0.10210937      0.93068779
C      -2.63028415      0.04155113      0.90121234
S       0.51102335      0.05610780     -1.70915350
C       1.95078111     -0.05583821     -0.77868716
C       3.28783672     -0.08887853     -1.21202748
H       6.40032079      0.19785963      0.07224472
H       6.03509196     -1.28893930     -0.83851075
H       5.89726366      0.30867081     -1.61394198
H       4.76041385     -0.33999533      1.85735938
H       2.39067883     -0.27506052      2.57869551
H      -2.19174755      0.17535453     -2.46897284
H      -4.61896234      0.26223384     -2.39791089
H      -6.59922984      0.60898325     -1.03701090
H      -6.56730297      0.51151248      0.64594413
H      -4.53787384      0.03418272      1.88855132
H      -2.09178742     -0.05217137      1.84348988
H       3.52216803     -0.04616244     -2.27198396
