84
COC(=O)[C@H]1[C@H]2C[C@@H]3c4[nH]c5cc(OC)ccc5c4CCN3C[C@H]2C[C@@H](OC(=O)c2cc(OC)c(OC)c(OC)c2)[C@@H]1OC
C      -0.38860691     -3.63055388     -0.09050438
O      -0.00374238     -2.30164451     -0.44407181
C      -0.84613282     -1.69114990     -1.31764074
O      -1.85452179     -2.20884516     -1.78127829
C      -0.45425928     -0.25233812     -1.59881221
C      -1.14283030      0.76729057     -0.66365666
C      -2.68458054      0.72122773     -0.68901029
C      -3.30869165     -0.17788818      0.38643775
C      -4.80500236     -0.09432824      0.39438422
N      -5.62048481     -0.15854528     -0.70243854
C      -6.94183146     -0.09646890     -0.31020407
C      -8.11325487     -0.12868295     -1.08311264
C      -9.33848756     -0.06232938     -0.41173610
O     -10.56924038     -0.10056225     -1.01296714
C     -10.59629379      0.11364649     -2.41970873
C      -9.37708195      0.02333946      0.98015938
C      -8.20232523      0.05235156      1.74057353
C      -6.95981007     -0.00963209      1.08406277
C      -5.60688053     -0.01675862      1.51341793
C      -5.00543904      0.05126314      2.87259967
C      -3.52264084     -0.40367127      2.82354388
N      -2.77968075      0.23642559      1.71050045
C      -1.34816737     -0.04617066      1.78933806
C      -0.56916545      0.80433756      0.77062045
C       0.92562437      0.46150858      0.82426878
C       1.64306428      0.77547951     -0.48617693
O       3.04232641      0.44030371     -0.33137252
C       3.82696810      1.40381314      0.21041427
O       3.46540832      2.49735871      0.60810937
C       5.24406349      0.96673814      0.20118843
C       5.59549319     -0.39081361      0.20731605
C       6.94010171     -0.76402106      0.18628523
O       7.39593378     -2.05649323      0.18611688
C       6.43299174     -3.09645653      0.29120482
C       7.92386678      0.24294675      0.16343847
O       9.24937364     -0.12063517      0.07696378
C       9.81108706     -0.22181867      1.38415700
C       7.58146990      1.60683025      0.14585899
O       8.62218324      2.49722423      0.10830314
C       8.30050643      3.86631803     -0.11052087
C       6.23350930      1.96037839      0.18230339
C       1.08053239     -0.05650266     -1.66687714
O       1.33857658      0.61300450     -2.92482980
C       2.69896694      0.59153888     -3.33695679
H      -0.48185231     -4.25841103     -0.98096269
H      -1.32448736     -3.61305274      0.47537775
H       0.39302237     -4.05000971      0.55002367
H      -0.84443154     -0.07620850     -2.61427778
H      -0.89049795      1.74252424     -1.11052220
H      -3.04901147      1.74845813     -0.54038424
H      -3.03330756      0.43317094     -1.68865539
H      -3.05438780     -1.22787923      0.20566040
H      -5.31298640     -0.26174653     -1.65869064
H      -8.04525318     -0.21528438     -2.15889050
H     -11.64439094      0.20088228     -2.72291510
H     -10.16349447     -0.73743787     -2.95789343
H     -10.09634550      1.04774395     -2.69044066
H     -10.33765193      0.06520676      1.48677225
H      -8.25176957      0.11917791      2.82174144
H      -5.05795506      1.08782002      3.23031053
H      -5.56187355     -0.57424380      3.57960807
H      -3.06393130     -0.14124625      3.78494233
H      -3.47596577     -1.49690306      2.72897753
H      -1.15324051     -1.11567590      1.64817718
H      -0.97605230      0.20992867      2.78888462
H      -0.66689040      1.84963423      1.10032738
H       1.39058847      1.00947696      1.65259214
H       1.08386877     -0.59390788      1.07587476
H       1.54977955      1.84083215     -0.73099259
H       4.80767005     -1.13732158      0.23091254
H       5.87351228     -3.01725830      1.22916195
H       6.96736029     -4.05067272      0.30075869
H       5.76032366     -3.09856239     -0.57325419
H       9.78130911      0.73798391      1.91077688
H      10.85993613     -0.51208772      1.27148681
H       9.30811130     -0.99343112      1.97682869
H       7.74727500      3.99939673     -1.04726042
H       9.24076323      4.42090211     -0.19773951
H       7.74658554      4.28459848      0.73817561
H       5.91879218      3.00074589      0.18680755
H       1.59051614     -1.02634894     -1.72430897
H       2.74352043      0.93792949     -4.37237321
H       3.29802628      1.27546888     -2.73284700
H       3.11192055     -0.42120668     -3.29495161
