17
CCOc1nc(C(Cl)(Cl)Cl)ns1
C      -3.16194751      0.43688405      1.04650362
C      -1.72728443      0.03985377      0.75198342
O      -1.30523039      0.73486666     -0.42021286
C      -0.05475098      0.47966274     -0.79838292
N       0.76525401     -0.33704680     -0.17812619
C       1.99693547     -0.35585337     -0.86156240
C       3.15850438     -1.21363485     -0.38297642
Cl      4.56601084     -0.17260636      0.00075738
Cl      3.61149373     -2.38998446     -1.65698454
Cl      2.73072167     -2.13596343      1.09703601
N       2.11411679      0.41460658     -1.95916112
S       0.65836076      1.20078714     -2.17283847
H      -3.23914692      1.51860393      1.19834564
H      -3.81240825      0.18623182      0.20198847
H      -3.53186822     -0.07260249      1.94065898
H      -1.09255436      0.31294739      1.60370781
H      -1.67620657     -1.04357180      0.58926358
