25
CCCOC(=O)c1ccc(O)cc1
C       4.70715157     -0.06911989      0.06902428
C       3.26446309     -0.38996304      0.41533796
C       2.28565319      0.42233545     -0.42347126
O       0.95601637      0.05620084     -0.03085842
C      -0.02316308      0.70964955     -0.70405856
O       0.14590407      1.54605986     -1.57742008
C      -1.36630144      0.27106499     -0.23580372
C      -2.49666683      0.85148247     -0.83161537
C      -3.78128582      0.47576486     -0.42937871
C      -3.93063123     -0.48099153      0.56927495
O      -5.16330082     -0.87824582      0.99353678
C      -2.82121093     -1.06584205      1.16987842
C      -1.53615491     -0.69164386      0.76922384
H       4.92724906      0.98838865      0.24657165
H       5.38701359     -0.66562313      0.68531375
H       4.91717710     -0.29228058     -0.98187049
H       3.08495886     -0.19642748      1.47973422
H       3.07502107     -1.45997978      0.26771221
H       2.42677981      0.20083056     -1.48790963
H       2.43695559      1.49387197     -0.24761002
H      -2.37868672      1.60024314     -1.61317440
H      -4.64213551      0.93712214     -0.90328000
H      -5.83866554     -0.39210673      0.49227858
H      -2.95586608     -1.81179542      1.94864866
H      -0.68027447     -1.15899517      1.24941721
