30
CCC1(CC)C(=O)NCC(C)C1=O
C      -0.39154258      1.57395297      2.36419469
C      -1.35529416      1.29495767      1.21452148
C      -0.86587982      0.22567463      0.19855397
C      -1.96043292      0.06997983     -0.89565413
C      -1.63277205     -0.93310840     -1.99765599
C      -0.73529529     -1.11252014      0.92261202
O      -1.62919040     -1.58653671      1.62105194
N       0.42380578     -1.81432705      0.76659630
C       1.46313578     -1.45479741     -0.16143719
C       1.72397335      0.03773920     -0.11196179
C       2.84868373      0.42193229     -1.06667456
C       0.41938786      0.73613796     -0.45734951
O       0.40662845      1.72837957     -1.19171287
H      -0.16656258      0.66738062      2.93340689
H       0.54845807      2.00165917      2.00388342
H      -0.83762398      2.29779228      3.05427954
H      -1.54307082      2.24339282      0.69426520
H      -2.31622584      0.98545593      1.64601129
H      -2.15322053      1.04125224     -1.36979122
H      -2.90645161     -0.23752612     -0.43066288
H      -1.50133116     -1.94251772     -1.59722870
H      -2.45388324     -0.96993230     -2.72123642
H      -0.72614317     -0.65230543     -2.54149340
H       0.41894271     -2.73463262      1.19531175
H       2.35799819     -2.02148129      0.11596160
H       1.14600735     -1.78164473     -1.15789809
H       2.00068025      0.34271188      0.90430026
H       2.58976046      0.18568792     -2.10484021
H       3.77254992     -0.10922701     -0.81516979
H       3.05490825      1.49646996     -1.01418361
