19
CC(C)(CO)CO
C      -0.75464513      0.77339142     -1.15395530
C      -0.00756202      0.27263525      0.09652125
C      -0.14201178      1.32108357      1.21330580
C       1.48976094      0.07589574     -0.23068240
O       1.69868221     -0.80286661     -1.32972253
C      -0.63530105     -1.05156315      0.58251726
O      -0.46193262     -2.08419314     -0.38500567
H      -0.71152489      0.05098041     -1.97584991
H      -1.81233538      0.95589551     -0.93226172
H      -0.32513037      1.71416673     -1.51654151
H       0.38531532      1.00327656      2.11979876
H      -1.19254638      1.48507133      1.47850716
H       0.27775078      2.28502802      0.90439140
H       1.96107859      1.03171368     -0.48453692
H       2.02489447     -0.33453749      0.63298291
H       1.03642484     -1.52186670     -1.23756492
H      -1.70890157     -0.92957745      0.76543452
H      -0.16520259     -1.38543300      1.51422159
H      -0.95681337     -2.85910069     -0.06155978
