20
CC1CCCC(=O)C1
C       2.33140904     -0.01619909      0.44076922
C       0.94968487      0.01546967     -0.20893634
C       0.10951003     -1.18750980      0.24408728
C      -1.27285629     -1.16642924     -0.40635504
C      -2.02210483      0.12216246     -0.10010883
C      -1.17181972      1.32393371     -0.44238739
O      -1.63398294      2.28991563     -1.04767722
C       0.23710579      1.33240300      0.10801449
H       2.85912649     -0.94132990      0.18612663
H       2.94243300      0.82407586      0.09461921
H       2.26010087      0.04348934      1.53212593
H       1.08373566     -0.05333575     -1.29706444
H       0.61884285     -2.12080549     -0.02406651
H       0.00127748     -1.18376988      1.33611506
H      -1.85839664     -2.02434499     -0.05740261
H      -1.16017907     -1.27492587     -1.49242666
H      -2.94951414      0.16096708     -0.68094165
H      -2.28196156      0.18098280      0.96233306
H       0.78344113      2.17228997     -0.33569626
H       0.17414799      1.50296049      1.18887209
