37
Nc1nc(F)nc2c1ncn2[C@@H]1O[C@H](COP(=O)(O)O)[C@@H](O)[C@@H]1O
N      -5.16717654      2.15213033      1.59974656
C      -4.47192445      1.00162091      1.24973316
N      -5.17771217     -0.06958293      0.82780001
C      -4.50585100     -1.19364868      0.49498430
F      -5.25575910     -2.23087500      0.08944003
N      -3.17133297     -1.40258879      0.51388333
C      -2.51984009     -0.30347413      0.92259049
C      -3.07175247      0.90879560      1.29887191
N      -2.08684103      1.80898491      1.64821677
C      -0.95784639      1.14719054      1.49289392
N      -1.16921222     -0.13166291      1.05342587
C      -0.17765933     -1.14227556      0.76419290
O       1.09848850     -0.75725682      1.31531177
C       2.12509902     -1.39224138      0.51382955
C       3.15732497     -0.32806981      0.13630853
O       2.55828616      0.68865893     -0.66087847
P       3.48115100      1.92235547     -1.10346892
O       2.83230380      2.93132423     -1.98219037
O       4.78654130      1.27643728     -1.75025589
O       4.02645160      2.55129915      0.25517050
C       1.43439432     -2.04724459     -0.69494919
O       1.28515632     -3.44878717     -0.44338830
C       0.06274505     -1.39051798     -0.72669764
O       0.10987765     -0.19488586     -1.51038171
H      -6.08597524      2.19441074      1.17883032
H      -4.59887986      2.99203338      1.57940163
H       0.03211615      1.54178626      1.68388307
H      -0.48112735     -2.06333269      1.27792834
H       2.60877468     -2.14590757      1.14607028
H       3.97993428     -0.78851500     -0.41981527
H       3.55380338      0.13281143      1.04687773
H       5.24550368      1.92328415     -2.31733344
H       3.46890094      3.29895140      0.54228521
H       2.01005453     -1.92936811     -1.61849939
H       0.92989421     -3.85589862     -1.25570018
H      -0.71428219     -2.03324113     -1.15214549
H       0.82637087      0.37729999     -1.16750743
