40
CN1CCC23c4c5ccc(O)c4OC2C(O)C=CC3C1C5
C      -3.45116678     -1.61413123     -1.23291474
N      -2.06916260     -1.18543591     -1.03691621
C      -1.54007985     -0.52248283     -2.22870822
C      -0.08021278     -0.06435636     -2.05962277
C       0.20292218      0.53977053     -0.66007794
C       0.90662524     -0.48114322      0.17859292
C       0.32709445     -1.41811207      1.01546992
C       1.18836275     -2.28795330      1.69145523
C       2.58660963     -2.17896768      1.52867748
C       3.12800981     -1.17557353      0.72572723
O       4.47712094     -1.03815679      0.62634588
C       2.27064811     -0.31836346      0.07730830
O       2.61346102      0.79684018     -0.64859062
C       1.34855919      1.57225355     -0.67136963
C       1.35407829      2.55488627      0.54004304
O       1.44223479      3.89428242      0.04099714
C       0.16246336      2.50920406      1.45626014
C      -0.94135396      1.77958254      1.23832973
C      -1.11857405      0.93027135      0.00706820
C      -1.89766454     -0.41559636      0.22682626
C      -1.16247634     -1.35978874      1.23574049
H      -3.80087580     -2.19650855     -0.37328132
H      -4.12685036     -0.76298764     -1.37342342
H      -3.53328941     -2.26814661     -2.10805965
H      -1.58159421     -1.20609861     -3.08599052
H      -2.16342561      0.34111155     -2.49657215
H       0.58788055     -0.90874368     -2.27558393
H       0.11181717      0.68605444     -2.83700433
H       0.78823004     -3.04498440      2.36159711
H       3.24785533     -2.85925952      2.05835730
H       4.62154118     -0.29526461      0.01009333
H       1.35534489      2.14415860     -1.60729961
H       2.25598830      2.38965809      1.14194994
H       1.54712900      4.47981356      0.80950806
H       0.21725025      3.11478515      2.35766244
H      -1.76617527      1.83145738      1.94514026
H      -1.70579350      1.56229552     -0.67480520
H      -2.88107369     -0.17023689      0.65119270
H      -1.33573188     -0.98299514      2.25199428
H      -1.58572584     -2.37113806      1.19388288
