16
Nc1cccc(N)c1
N       2.49484351     -0.72073033     -0.34489727
C       1.23950217     -0.15424159     -0.08372800
C       1.08843492      1.23259082     -0.04787879
C      -0.17325310      1.80143975      0.12776055
C      -1.30168964      0.98477664      0.20513779
C      -1.18651844     -0.39666902      0.04465747
N      -2.30802170     -1.22179584      0.20713045
C       0.09195844     -0.95615816     -0.06781092
H       3.27136219     -0.15002659     -0.02584311
H       2.57522189     -1.68480323     -0.03697453
H       1.95516670      1.88169464     -0.13489675
H      -0.27699709      2.88014011      0.20426280
H      -2.27454037      1.43906661      0.37040810
H      -3.18289775     -0.76980257     -0.03939294
H      -2.20824671     -2.13090466     -0.23364166
H       0.19567498     -2.03457658     -0.14429318
