24
CCC(C)c1ccccc1
C      -1.98625165      1.18062463      1.16901953
C      -2.00392175      0.46497964     -0.17627524
C      -1.01472297     -0.71620375     -0.24658786
C      -1.21801651     -1.50458935     -1.54612162
C       0.43706204     -0.28846610     -0.10533428
C       1.03433547      0.60521476     -1.00754112
C       2.36988412      0.98409375     -0.85713848
C       3.12632676      0.47449532      0.19542177
C       2.54828432     -0.41483550      1.09799879
C       1.21290843     -0.79463208      0.94877255
H      -1.02244228      1.66359298      1.35583204
H      -2.18810023      0.48229379      1.98744104
H      -2.75704759      1.95776227      1.19024349
H      -1.80417467      1.19278745     -0.97171580
H      -3.02083627      0.08938757     -0.34673292
H      -1.25989204     -1.39945427      0.57811692
H      -0.52962081     -2.35544964     -1.60081461
H      -1.05156903     -0.88238212     -2.43230344
H      -2.23899851     -1.89748679     -1.60276455
H       0.46394786      1.01511951     -1.83759166
H       2.81922306      1.67751187     -1.56304978
H       4.16548969      0.76977177      0.31186499
H       3.13678936     -0.81409894      1.91974655
H       0.78134320     -1.49003675      1.66520694
