34
c1cc2c3c(c4ccc5ccccc5c4cc3c1)CC2
C      -3.45934850      2.56237351      0.81003784
C      -4.10381188      1.38116021      0.41225485
C      -3.32888970      0.28888558      0.05935071
C      -1.96151693      0.38747758      0.10685245
C      -1.36672916     -0.78611805     -0.27492014
C       0.02951223     -0.88568759     -0.29266571
C       0.65339553     -2.07690789     -0.67994889
C       2.04051270     -2.18354025     -0.70013404
C       2.84860623     -1.10502619     -0.33456718
C       4.24603028     -1.25215645     -0.36805502
C       5.08883217     -0.20333730     -0.01192701
C       4.54186108      1.00719484      0.38259136
C       3.15285200      1.16566915      0.41991422
C       2.25877060      0.12263566      0.06514665
C       0.82260453      0.24209449      0.08904942
C       0.13485082      1.43639038      0.47666213
C      -1.27087061      1.52836939      0.49179638
C      -2.05392179      2.64216327      0.85173901
C      -2.41449344     -1.81097706     -0.62536519
C      -3.75785383     -1.07202174     -0.39552904
H      -4.05288550      3.42955206      1.09044546
H      -5.18772181      1.33000861      0.38353264
H       0.06613900     -2.94376505     -0.97310691
H       2.48466107     -3.12800037     -1.00773762
H       4.69283307     -2.19567571     -0.67533456
H       6.16690463     -0.33381907     -0.04337535
H       5.18970608      1.83355663      0.66301342
H       2.78046093      2.13539007      0.73665882
H       0.69127520      2.31955426      0.77488284
H      -1.57878273      3.56837708      1.16332439
H      -2.34175297     -2.68742361      0.02718361
H      -2.32327100     -2.12588105     -1.67024956
H      -4.33474229     -1.01456373     -1.32424422
H      -4.35321600     -1.57595165      0.37272424
