16
CCC(=O)CC
C       2.50954058      0.43921795     -0.01677152
C       1.19151285     -0.01113465     -0.62037577
C       0.03255302      0.09054941      0.35761655
O       0.17910550      0.49821657      1.50880226
C      -1.31965117     -0.34531738     -0.18234689
C      -2.43006925     -0.21814438      0.84485905
H       2.45667063      1.48344984      0.30862162
H       2.77193955     -0.17044188      0.85418099
H       3.31546834      0.35041836     -0.75170355
H       1.27485827     -1.05402007     -0.94359513
H       0.95786769      0.60891737     -1.49213976
H      -1.23809686     -1.38844022     -0.50525676
H      -1.55508117      0.27449888     -1.05379842
H      -2.22365984     -0.83525657      1.72557691
H      -3.38403824     -0.54115070      0.41691075
H      -2.53891988      0.81863745      1.18001843
