20
Cc1cc(C)cc(N)c1
C      -2.62667961     -0.91797233     -0.46673867
C      -1.26404840     -0.35881534     -0.18361173
C      -0.16575369     -1.21241257     -0.02882983
C       1.11755633     -0.69297555      0.17644462
C       2.30058649     -1.60931150      0.27817693
C       1.29344782      0.69738336      0.21128091
C       0.20350332      1.56556532      0.10688658
N       0.40954032      2.94942882      0.02838083
C      -1.06144998      1.02779639     -0.14473763
H      -2.76995555     -1.02640321     -1.54619785
H      -3.40822773     -0.26174163     -0.06954100
H      -2.75359790     -1.89682610      0.00756178
H      -0.30811859     -2.28976632     -0.08702003
H       3.07978621     -1.17206896      0.91133489
H       2.71605618     -1.79613807     -0.71680924
H       2.01611147     -2.56605962      0.72865571
H       2.29507837      1.10611278      0.31946517
H      -0.41108172      3.49538009      0.27042855
H       1.23994077      3.26372700      0.52003324
H      -1.90269412      1.69509747     -0.31516325
