31
O=C(Cn1ccnc1[N+](=O)[O-])NCc1ccccc1
O       1.04456004      1.67872702     -1.93982953
C       0.89646547      0.57421780     -1.42361353
C       1.95888790     -0.50224801     -1.51028625
N       3.12910908     -0.16787065     -0.71946268
C       4.24540232      0.45651817     -1.22946978
C       5.13646627      0.53278645     -0.18515526
N       4.60785507     -0.03003909      0.94572268
C       3.39963789     -0.43377936      0.59917879
N       2.49980391     -1.07672074      1.52237635
O       1.31586845     -1.19978140      1.17210613
O       2.96456236     -1.46582093      2.60016791
N      -0.23512562      0.21465594     -0.72825909
C      -1.27017212      1.18872400     -0.46554277
C      -2.47599644      0.52801846      0.14349640
C      -2.56599888      0.35173121      1.53185713
C      -3.67192366     -0.28840727      2.09325022
C      -4.69357358     -0.76434520      1.27355152
C      -4.60925832     -0.60471516     -0.10835068
C      -3.50383458      0.03435204     -0.67206008
H       2.26866572     -0.59107434     -2.55835474
H       1.58894367     -1.48755269     -1.21506283
H       4.30524675      0.79246931     -2.25688765
H       6.13052660      0.96352537     -0.18980209
H      -0.15679474     -0.54808548     -0.05802991
H      -0.86283989      1.94986355      0.21065015
H      -1.53259172      1.70014831     -1.39926679
H      -1.77344997      0.71109950      2.18508778
H      -3.73521185     -0.41806476      3.17073626
H      -5.55424967     -1.26281559      1.71188013
H      -5.40397671     -0.98038242     -0.74770872
H      -3.44700374      0.14486597     -1.75291905
