22
OCCCCCCO
O      -3.42819155     -0.96785618     -0.64913793
C      -3.18488133      0.21148646      0.10410933
C      -1.80036614      0.14574554      0.73729157
C      -0.68503688      0.11558088     -0.31185100
C       0.69532284      0.07307693      0.34629997
C       1.80817060      0.04483256     -0.69909750
C       3.18567394     -0.00534141     -0.05152241
O       4.19115886     -0.00858569     -1.05620080
H      -4.32032572     -0.88551413     -1.02741402
H      -3.27250587      1.07849482     -0.55844900
H      -3.94981712      0.28583808      0.88346815
H      -1.66535124      1.01261261      1.39435362
H      -1.72857756     -0.75649836      1.35678819
H      -0.75981516      1.00371990     -0.95108050
H      -0.80567945     -0.76045497     -0.96023051
H       0.76983663     -0.81466660      0.98609968
H       0.82140205      0.94968682      0.99329413
H       1.74388203      0.92782768     -1.34708591
H       1.68483760     -0.82197949     -1.36027390
H       3.34910591      0.86939127      0.58555001
H       3.30540652     -0.90405063      0.56205347
H       4.04575104     -0.79334609     -1.61192905
