12
Clc1ccccc1Cl
Cl      2.72580080      1.37980802     -0.02601131
C       1.18814834      0.59175573     -0.01114089
C       0.04414736      1.39646379     -0.02822391
C      -1.22474705      0.81413813     -0.01733101
C      -1.35432427     -0.57342740      0.01065195
C      -0.21517832     -1.38050108      0.02778130
C       1.05804920     -0.80139861      0.01695742
Cl      2.42321740     -1.86037791      0.03934494
H       0.13527994      2.47991661     -0.05008124
H      -2.11167044      1.44374188     -0.03069097
H      -2.34249525     -1.02802420      0.01915569
H      -0.32622771     -2.46209498      0.04958802
