8
ClCC(Cl)(Cl)Cl
Cl      1.66318514     -1.41307230     -0.34396918
C       0.80088357      0.13419638     -0.08127145
C      -0.71835757     -0.00574653      0.08476640
Cl     -1.42178739      1.63244227      0.33800267
Cl     -1.13780470     -1.00552740      1.51045108
Cl     -1.48086776     -0.70655301     -1.37657627
H       1.25103572      0.59179053      0.80665514
H       1.04371299      0.77247007     -0.93805839
