15
CC=C(C)C
C       2.09530524     -0.25187947     -0.40652327
C       0.75406841     -0.65726522      0.11652171
C      -0.43192228     -0.04201290     -0.05641934
C      -1.68509926     -0.61236395      0.55730880
C      -0.65456941      1.22271323     -0.83886535
H       2.08090561      0.66296338     -1.00078501
H       2.50094194     -1.05174207     -1.03412472
H       2.78321347     -0.09589451      0.43052839
H       0.77855996     -1.57210190      0.70882154
H      -1.49245612     -1.53177991      1.12018725
H      -2.13257950      0.11119281      1.24664335
H      -2.41587677     -0.84808607     -0.22330280
H      -1.07673237      1.99639952     -0.18874131
H       0.25584027      1.63129792     -1.28096347
H      -1.35959920      1.03855913     -1.65647966
