19
CC(=O)Nc1ccc(Cl)cc1
C       3.48063227      0.13552520     -0.30676810
C       2.12863606     -0.51742282     -0.15879436
O       2.02516410     -1.73724305     -0.10209463
N       1.10088187      0.40833445     -0.13043825
C      -0.28033944      0.15370031     -0.00683610
C      -0.83143961     -1.12346584      0.12245459
C      -2.21628023     -1.29159631      0.24142380
C      -3.05521647     -0.18149187      0.23189149
Cl     -4.75608697     -0.38882211      0.37818122
C      -2.52140013      1.09728382      0.10452207
C      -1.13776867      1.26302213     -0.01420980
H       3.52948449      1.06781171      0.26324405
H       4.25275381     -0.53707698      0.07787555
H       3.67033739      0.33970992     -1.36373838
H       1.36582017      1.38149577     -0.21588032
H      -0.21195391     -2.01509934      0.13526421
H      -2.62617971     -2.29332859      0.34085297
H      -3.17265787      1.96709498      0.09677444
H      -0.74438715      2.27156862     -0.11249238
