28
CC(C)N(C(=O)CCl)c1ccccc1
C      -2.05705726     -1.77528436     -0.51424974
C      -1.27491863     -1.06545334      0.59562106
C      -2.15709078     -0.78903745      1.81596897
N      -0.58839062      0.16025124      0.11278465
C      -1.34850501      1.26127111     -0.31740110
O      -2.56679197      1.18986919     -0.49779394
C      -0.60758093      2.58513013     -0.49758037
Cl     -1.58491392      3.92740527      0.15090541
C       0.81672377      0.05221839     -0.12132056
C       1.37049985      0.41578287     -1.35637044
C       2.74494823      0.30129760     -1.57923630
C       3.57761400     -0.18179088     -0.57256643
C       3.03672634     -0.55817746      0.65457289
C       1.66214883     -0.44725893      0.87745752
H      -2.92581789     -1.20151000     -0.84844680
H      -1.41811721     -1.95334810     -1.38583917
H      -2.42339622     -2.74557104     -0.16154187
H      -0.51566132     -1.78402506      0.92671265
H      -3.01573383     -0.15563456      1.57469262
H      -1.58225845     -0.28697080      2.60163349
H      -2.54530273     -1.72650413      2.22849841
H      -0.43942976      2.77056593     -1.56103338
H       0.33648207      2.61234621      0.04838640
H       0.74034097      0.74763828     -2.17747103
H       3.16418287      0.57723013     -2.54389911
H       4.64718432     -0.27160831     -0.74652182
H       3.68540836     -0.93537668      1.44144128
H       1.26870693     -0.72345526      1.85259674
