41
Cc1nccn1CC1CCc2c(c3ccccc3n2C)C1=O
C      -4.35298804      1.82611397      0.25358961
C      -4.51176618      0.35869106      0.41664776
N      -5.47495440     -0.23390016      1.09496264
C      -5.26846232     -1.57884365      0.94961401
C      -4.15520749     -1.81742237      0.18263760
N      -3.66455452     -0.57818137     -0.13014679
C      -2.48042319     -0.32691751     -0.93145990
C      -1.23240366      0.00090403     -0.10069601
C      -0.79071858     -1.18841165      0.78568761
C       0.48298169     -0.87955344      1.58937216
C       1.50924527     -0.30840814      0.67439855
C       1.25303914      0.28849603     -0.54595583
C       2.50219387      0.66376122     -1.11211466
C       2.88474335      1.28335141     -2.32012679
C       4.23848303      1.51195060     -2.58438725
C       5.21076844      1.13274761     -1.66515630
C       4.85992653      0.51900518     -0.45894274
C       3.49722249      0.29501186     -0.19832074
N       2.86294621     -0.27459038      0.89185264
C       3.54391412     -0.76283391      2.07221675
C      -0.10582553      0.43052194     -1.05410967
O      -0.34433173      0.91602573     -2.15766975
H      -5.18267819      2.35418804      0.73438605
H      -4.34872789      2.10362218     -0.80465322
H      -3.42395668      2.17216479      0.71488461
H      -5.93448593     -2.30229015      1.40126436
H      -3.68811630     -2.73437102     -0.14767570
H      -2.30841311     -1.21204110     -1.55716000
H      -2.73463229      0.49030790     -1.61662534
H      -1.43508828      0.86258127      0.54821383
H      -1.58298180     -1.46186605      1.49092371
H      -0.60801675     -2.06531991      0.14956727
H       0.25753134     -0.15540617      2.38078224
H       0.84070437     -1.79967886      2.06364133
H       2.13088057      1.58023871     -3.04519054
H       4.52930347      1.98854547     -3.51714672
H       6.25958437      1.31626036     -1.88697536
H       5.62982326      0.22787039      0.24817116
H       3.90328226     -1.77312259      1.86231570
H       4.37800551     -0.09750500      2.30839658
H       2.85415358     -0.77169635      2.91913468
