27
COCCOCCOCCO
C       3.64397591     -0.02628023     -0.10872100
O       3.84859454     -1.01271465     -1.11149115
C       2.91353470     -2.09550172     -1.04173151
C       1.49888935     -1.69378944     -1.46616515
O       0.81323099     -1.08988295     -0.36203906
C      -0.49933984     -0.66793420     -0.73092964
C      -1.18377973     -0.03852933      0.47807455
O      -2.49578246      0.38793797      0.10898901
C      -3.21974444      0.96966240      1.20204005
C      -2.87101253      2.44971293      1.34789722
O      -3.15120791      3.13590574      0.12910594
H       4.50814684      0.64399624     -0.11201626
H       2.75622404      0.57133329     -0.33091916
H       3.56343401     -0.48163558      0.88292681
H       2.92732323     -2.52844185     -0.03498992
H       3.28450370     -2.85325283     -1.73962913
H       1.53841766     -0.98727570     -2.30270590
H       0.94342933     -2.58972127     -1.76452301
H      -1.08488693     -1.52439526     -1.08591491
H      -0.44422259      0.06220387     -1.54722972
H      -0.58976511      0.80942276      0.83595511
H      -1.24234311     -0.77224516      1.29085552
H      -3.04114712      0.41741755      2.13094528
H      -4.28085497      0.87573601      0.94815050
H      -1.81016947      2.59298920      1.57000145
H      -3.46034404      2.90996881      2.14590138
H      -2.86510406      2.53531339     -0.58627135
