51
C[C@H]1O[C@H](OC2[C@@H](O)[C@@H](O)C(O)[C@H](O)[C@H]2O)[C@@H](N)C[C@@H]1N=C(N)C(=O)O
C       3.69952203     -1.23839361      1.12177860
C       2.42543658     -0.61932384      0.54692116
O       1.62813505     -0.20935044      1.66883642
C       0.37319395      0.37396393      1.28144708
O      -0.41046446     -0.60292960      0.58431836
C      -1.82825220     -0.35136328      0.62783749
C      -2.46062856     -1.49513541      1.44382158
O      -2.03216027     -1.41685741      2.81095849
C      -3.99234779     -1.44038860      1.42811681
O      -4.43731270     -0.25271922      2.10627692
C      -4.53656580     -1.41733686     -0.00245265
O      -5.96187141     -1.23755867      0.00852673
C      -3.92024361     -0.27176537     -0.81395516
O      -4.37974930     -0.33555508     -2.18067040
C      -2.38980192     -0.35205118     -0.80538476
O      -1.87463159      0.76052851     -1.54461085
C       0.63200662      1.66155826      0.45258157
N       1.29994844      2.69360703      1.27944014
C       1.47600681      1.31574505     -0.78057174
C       2.76109599      0.56011434     -0.41094317
N       3.37368893      0.01716349     -1.63622282
C       4.08143908      0.77757195     -2.39789388
N       4.39969820      2.10262026     -2.23746726
C       4.64009846      0.05598460     -3.66342327
O       5.07527228      0.66509712     -4.62559185
O       4.53804765     -1.29411194     -3.52231874
H       3.44528493     -2.06386963      1.79501521
H       4.35354509     -1.61741139      0.33481484
H       4.25533668     -0.51071756      1.71469319
H       1.88671265     -1.40811087      0.00229181
H      -0.12746918      0.63394357      2.22358448
H      -2.02373847      0.61694493      1.10052940
H      -2.11982709     -2.46467945      1.06273462
H      -1.05101766     -1.43839961      2.78073015
H      -4.41807210     -2.28055353      1.99205864
H      -3.96353953     -0.26976445      2.96766200
H      -4.34342201     -2.37388788     -0.50304008
H      -6.14355482     -0.61120026      0.73364416
H      -4.25708006      0.70599375     -0.43764446
H      -5.32673055     -0.60718838     -2.12759934
H      -2.05417386     -1.24703984     -1.33738780
H      -2.36935484      0.76077608     -2.39390258
H      -0.31654362      2.08380768      0.11400204
H       1.70042052      3.42298141      0.68953031
H       2.06416695      2.26477224      1.80506740
H       0.87571829      0.69269916     -1.46078523
H       1.70462858      2.22641539     -1.34844689
H       3.44928896      1.24330161      0.10405636
H       3.79007205      2.67372202     -1.66744526
H       4.75129696      2.57077276     -3.06987946
H       4.05849168     -1.45242179     -2.67185500
