23
c1ccc2nc3ccccc3cc2c1
C      -3.51061021     -1.10001914     -0.32095952
C      -3.67089083      0.28010299     -0.35893388
C      -2.54849673      1.11254411     -0.30884404
C      -1.26067848      0.60053174     -0.22120572
N      -0.21641031      1.44640974     -0.17606437
C       1.02914389      0.94697651     -0.09120533
C       2.11011810      1.81738667     -0.04438081
C       3.42640804      1.35391182      0.04397718
C       3.67707069     -0.01253859      0.08709104
C       2.61122977     -0.90851840      0.04169625
C       1.28921944     -0.43609665     -0.04718227
C       0.19560013     -1.30729197     -0.09476333
C      -1.10452933     -0.79826417     -0.18309199
C      -2.22977479     -1.64094857     -0.23313905
H      -4.37879573     -1.75277935     -0.35953114
H      -4.66459517      0.71501105     -0.42739336
H      -2.68125113      2.19148665     -0.33898824
H       1.92126380      2.88784290     -0.07769378
H       4.24885785      2.06359957      0.07863551
H       4.69782677     -0.37951349      0.15575999
H       2.81499040     -1.97619538      0.07584252
H       0.35639520     -2.38199034     -0.06303672
H      -2.11209136     -2.72164770     -0.20386524
