14
CCOC(=O)CCl
C      -1.99888638     -0.30029156      0.82583106
C      -1.17028494      0.82561709      0.23649904
O       0.21334535      0.65602263      0.58230826
C       0.94514344     -0.14000008     -0.25752534
O       0.49514236     -0.69840212     -1.24748204
C       2.36602310     -0.20137747      0.25209665
Cl      3.38621891     -1.21786687     -0.78572918
H      -1.85487246     -0.35677247      1.90980832
H      -3.06196455     -0.14899824      0.61839262
H      -1.69681965     -1.26828299      0.41379236
H      -1.30398852      0.89834060     -0.84886611
H      -1.49109573      1.78115403      0.66418292
H       2.79554749      0.80353440      0.26142910
H       2.37649158     -0.63267697      1.25624951
