17
O=C1CCCCC1
O      -0.53514906      2.25574327      1.42412689
C      -0.34551911      1.34300160      0.62157144
C      -1.46130067      0.41328500      0.19992452
C      -0.98156887     -1.03163911      0.19041125
C       0.29988585     -1.19761987     -0.62350981
C       1.40473694     -0.28639178     -0.09331090
C       0.97827765      1.17516937     -0.09013203
H      -1.79982778      0.71918275     -0.79589557
H      -2.30097295      0.52208668      0.89425984
H      -0.79772556     -1.36211567      1.22048366
H      -1.76623011     -1.67771856     -0.21879411
H       0.63119072     -2.24114365     -0.57800117
H       0.10256319     -0.96702410     -1.67743186
H       2.30723346     -0.40556901     -0.70311226
H       1.66384810     -0.59336177      0.92781260
H       1.73664860      1.78304282      0.41420153
H       0.86390959      1.55107203     -1.11260400
