13
C1=CCCC1
C      -0.76585109      0.88678642     -0.66772427
C       0.52739216      1.15312408     -0.45927779
C       1.22526606      0.01912876      0.21454707
C       0.06803315     -0.86347453      0.68119349
C      -1.14050486     -0.46809123     -0.16677072
H      -1.45825372      1.55178879     -1.16554811
H       1.02497905      2.06319948     -0.76529771
H       1.87143425     -0.50596012     -0.49628065
H       1.82944967      0.35768307      1.06121890
H      -0.14330825     -0.66625617      1.74040593
H       0.30171742     -1.92953990      0.59351076
H      -1.28703460     -1.15643266     -1.00536645
H      -2.05331925     -0.44195598      0.43538955
