21
CCCCCCO
C      -3.20029577     -0.29323586      0.23421931
C      -1.69859142     -0.37134577      0.46405652
C      -0.96667939      0.77003293     -0.24292742
C       0.53650157      0.80277722      0.04956046
C       1.28991178     -0.40948972     -0.50749897
C       2.79880907     -0.27636483     -0.33398763
O       3.12609839     -0.23946960      1.04758333
H      -3.60872861      0.64531953      0.62233437
H      -3.70513375     -1.11954200      0.74443436
H      -3.43743920     -0.35670925     -0.83259454
H      -1.49758575     -0.33308975      1.54084516
H      -1.33893177     -1.33900003      0.09849113
H      -1.12937564      0.70062763     -1.32541742
H      -1.39796695      1.72596581      0.07961254
H       0.69540854      0.87971306      1.13185031
H       0.95053774      1.71587196     -0.39601791
H       0.95470838     -1.31438162      0.01156236
H       1.06172933     -0.52944344     -1.57267570
H       3.30445257     -1.13623342     -0.78463526
H       3.16941008      0.63738823     -0.80949977
H       4.09316081     -0.15939108      1.10973163
