15
O=Cc1ccc(O)cc1
O       3.28319942     -0.90131261      0.07799567
C       2.60473422      0.11827106      0.08101019
C       1.12940076      0.07983744      0.03578159
C       0.45938959     -1.14767155     -0.01253909
C      -0.93598865     -1.17692328     -0.05515367
C      -1.64412211      0.02190815     -0.04891731
O      -3.00638916      0.04132873     -0.08941985
C      -0.98284512      1.24594396     -0.00093954
C       0.41192700      1.27961053      0.04175893
H       3.07076646      1.11718846      0.11795142
H       1.02219858     -2.07911127     -0.01700470
H      -1.44589704     -2.13459604     -0.09246730
H      -3.33161399     -0.87373255     -0.12020341
H      -1.55492197      2.17006285      0.00308053
H       0.92016201      2.23919612      0.07906654
