26
c1ccc2c(c1)-c1cccc3cccc-2c13
C      -3.64988635      0.65010929      0.07955486
C      -3.60958683     -0.69906848      0.48251905
C      -2.39479810     -1.38272917      0.59665257
C      -1.23563791     -0.69048441      0.30095257
C      -1.27637821      0.67354971     -0.10645615
C      -2.47641728      1.34987758     -0.21950176
C       0.10011059      1.09203308     -0.33616706
C       0.66986254      2.28623589     -0.73850729
C       2.06962178      2.35233108     -0.86391593
C       2.88739611      1.23397302     -0.58903384
C       2.31124219      0.01558838     -0.17894826
C       2.95992587     -1.19453670      0.13630001
C       2.20926435     -2.32346718      0.53261996
C       0.80612504     -2.27628341      0.62422875
C       0.16528460     -1.09024265      0.31562157
C       0.92272761      0.00622118     -0.07144087
H      -4.61045387      1.15463012      0.00014437
H      -4.53962647     -1.21635086      0.70830928
H      -2.37026850     -2.42098001      0.90724675
H      -2.51390798      2.38804322     -0.52908631
H       0.05842659      3.15580902     -0.95408370
H       2.53327676      3.28478548     -1.17946800
H       3.96559387      1.31962057     -0.69611608
H       4.04280632     -1.26562064      0.07605419
H       2.72842507     -3.24928581      0.77208536
H       0.24687221     -3.15375829      0.93043597
