17
CC1NC(=O)CNC1=O
C       2.22984949     -0.38595927     -0.12336016
C       0.80465002     -0.03076746      0.27039139
N       0.27408454      1.02674738     -0.58659066
C      -1.04765976      1.39713019     -0.45872401
O      -1.41780642      2.53096740     -0.74303038
C      -1.96063354      0.33793390      0.16860208
N      -1.43971721     -1.00495957     -0.02176557
C      -0.10999582     -1.27567982      0.21850598
O       0.25734516     -2.41776798      0.47338732
H       2.87875213      0.49525228     -0.07965040
H       2.64579088     -1.14811807      0.54385912
H       2.27018318     -0.77951580     -1.14535162
H       0.78530973      0.34374046      1.30120362
H       0.87615397      1.79992881     -0.84279878
H      -2.94382273      0.38157579     -0.30709157
H      -2.04778010      0.53075637      1.24189371
H      -2.05470351     -1.80126460      0.09051993
