26
OC[C@H](O)[C@@H](O)[C@H](O)[C@H](O)CO
O      -3.44723779      0.17634566      2.03982923
C      -2.11520558      0.33592123      1.52881310
C      -2.08374050     -0.25398967      0.11572944
O      -2.39753852     -1.65243719      0.18923144
C      -0.76337776     -0.05125075     -0.65446075
O      -0.60760966      1.33105479     -1.00442992
C       0.48238388     -0.57601197      0.09288290
O       0.77269017      0.21715021      1.25871790
C       1.75311121     -0.63887945     -0.77452966
O       2.81519593     -1.15707633      0.06114335
C       2.23384856      0.70178169     -1.33894488
O       3.52102193      0.48929787     -1.94008609
H      -3.43960407      0.55906133      2.93569353
H      -1.86642980      1.40078261      1.52996722
H      -1.46003033     -0.21264580      2.21039595
H      -2.89777682      0.20516358     -0.45962064
H      -3.15787428     -1.70233570      0.80425936
H      -0.83837599     -0.61057901     -1.59598977
H      -1.41146555      1.60586331     -1.47978480
H       0.28039874     -1.58865069      0.46354608
H       1.64671762     -0.10985344      1.55805514
H       1.62101092     -1.35725686     -1.59167298
H       3.62737186     -0.99819912     -0.46549712
H       1.56382714      1.08426681     -2.11198051
H       2.36356104      1.44710645     -0.54844973
H       3.80512763      1.35537044     -2.28397614
