23
CC(=O)CCC=C(C)C
C       3.87135053     -0.31557643      0.35220718
C       2.62415175     -0.82230902     -0.32459040
O       2.60778835     -1.91760918     -0.88416033
C       1.41844355      0.09625095     -0.27668245
C       0.19346045     -0.52742029     -0.93721450
C      -0.98163864      0.41190082     -0.89716988
C      -2.03625109      0.37097190     -0.05965993
C      -2.21757037     -0.62475721      1.05289768
C      -3.15473475      1.37284050     -0.18266521
H       4.19280016      0.61507288     -0.12176420
H       3.67057260     -0.14937508      1.41342310
H       4.67040175     -1.05590121      0.25585276
H       1.20632214      0.31738596      0.77588910
H       1.68827372      1.03156711     -0.78066077
H       0.41117172     -0.75678652     -1.98826640
H      -0.04237678     -1.49094112     -0.47345301
H      -0.95515042      1.19001264     -1.66042388
H      -2.40652280     -0.10266727      1.99715792
H      -1.34344479     -1.26014455      1.21265765
H      -3.07318840     -1.27409740      0.84115956
H      -2.99445003      2.07630146     -1.00649546
H      -4.10443317      0.85917201     -0.36467903
H      -3.24497548      1.95610907      0.73956411
