51
O=C(O[C@@H]1Cc2c(O)cc(O)cc2O[C@@H]1c1cc(O)c(O)c(O)c1)c1cc(O)c(O)c(O)c1
O       1.13916770      0.88486137      2.16941853
C       1.23878506      0.10049759      1.23948372
O       0.27740327     -0.74546524      0.80018940
C      -1.03289240     -0.59569725      1.39737810
C      -1.61102235     -1.99645045      1.59971649
C      -2.19261252     -2.57452048      0.33768415
C      -2.55274982     -3.92714468      0.23624662
O      -2.42008866     -4.81691482      1.26625062
C      -3.08103841     -4.45198377     -0.94339847
C      -3.25708487     -3.61954591     -2.04005406
O      -3.76369471     -4.08916629     -3.21558669
C      -2.92511189     -2.27448926     -1.96515119
C      -2.41208881     -1.75131396     -0.77661998
O      -2.12633577     -0.41293162     -0.80610676
C      -1.97191419      0.20718027      0.47802907
C      -1.50423217      1.64496802      0.28699512
C      -0.69369649      2.00975334     -0.80716157
C      -0.23592062      3.31503514     -0.93108094
O       0.56020413      3.65196159     -1.98685668
C      -0.57662726      4.27063103      0.01387409
O      -0.11031589      5.54968277     -0.13162942
C      -1.37606937      3.92911883      1.09724297
O      -1.67342862      4.91211409      2.00036809
C      -1.84179257      2.62435659      1.24396050
C       2.44829029     -0.00983308      0.38861523
C       3.34706712      1.07216818      0.38568157
C       4.49152949      1.00560124     -0.40062546
O       5.39588683      2.02921290     -0.45301895
C       4.74742061     -0.12545627     -1.16714914
O       5.87430426     -0.20196332     -1.93983283
C       3.85972227     -1.19388026     -1.16016236
O       4.11916886     -2.30201722     -1.91318915
C       2.70516942     -1.14833049     -0.39065654
H      -0.95038315     -0.12132328      2.38319965
H      -0.81926795     -2.65488696      1.97608822
H      -2.41393997     -1.95156789      2.34578138
H      -2.01241251     -4.38605328      2.03203125
H      -3.34388056     -5.50398889     -0.98540245
H      -3.91056059     -5.04565554     -3.12942105
H      -3.07049659     -1.63040137     -2.82790086
H      -2.97452579      0.25303593      0.92818522
H      -0.40888556      1.27627143     -1.55871382
H       0.71462125      4.61197341     -1.87984814
H      -0.48586641      6.02592323      0.63743141
H      -2.20045157      4.51756307      2.71651019
H      -2.45689038      2.35487658      2.09753357
H       3.13248886      1.95058991      0.98877886
H       5.04962183      2.76900030      0.07771200
H       6.32339202      0.65647408     -1.79522657
H       4.95839657     -2.09788206     -2.37396144
H       2.02363857     -1.99398725     -0.40392591
