14
Nc1ccccc1Cl
N       2.15150137     -0.72057051     -0.45642890
C       0.85561338     -0.28547348     -0.12154982
C      -0.13153023     -1.23867797      0.15448153
C      -1.45783332     -0.85461872      0.37396200
C      -1.82262270      0.48713508      0.28331710
C      -0.86371484      1.44531136     -0.04140972
C       0.46103564      1.05792937     -0.26069965
Cl      1.61638287      2.27803741     -0.67414313
H       2.44242101     -1.56675066      0.02141722
H       2.84006095      0.02698495     -0.39442291
H       0.12544554     -2.29413473      0.19614545
H      -2.20831104     -1.60783550      0.60154545
H      -2.85513114      0.78401748      0.44916536
H      -1.15331750      2.48864591     -0.13137996
