26
CC(C)COC(=O)C(C)C
C      -2.68369967     -0.49494596      1.40048306
C      -2.55968514      0.01938341     -0.03459694
C      -2.48425495      1.54711942     -0.03774095
C      -1.34898743     -0.59987724     -0.74676354
O      -0.14093084     -0.23638511     -0.06547351
C       0.99734623     -0.72035394     -0.63918352
O       1.03347344     -1.41382164     -1.64598993
C       2.20760845     -0.26424763      0.15531040
C       2.48168061      1.20953428     -0.12108447
C       3.42825162     -1.11759982     -0.17893818
H      -2.74867557     -1.58797908      1.41620754
H      -3.58842607     -0.10020733      1.87511397
H      -1.82643388     -0.19685381      2.01336228
H      -3.46164094     -0.27913801     -0.58333913
H      -2.40564258      1.92915846     -1.06100352
H      -1.62012984      1.91145281      0.52794513
H      -3.38510046      1.97897530      0.41124228
H      -1.30608710     -0.23850151     -1.78153538
H      -1.44451655     -1.69247751     -0.75591904
H       1.98246755     -0.40706319      1.21951460
H       2.67922737      1.38365188     -1.18470738
H       1.62217287      1.82872704      0.15775254
H       3.34762969      1.56003174      0.44995209
H       3.71428876     -1.01339567     -1.23152267
H       4.28625586     -0.82710561      0.43624796
H       3.22380857     -2.17808129      0.00466632
