44
C[C@]12CC[C@@H]3c4ccc(O)cc4CC[C@H]3[C@@H]1CC[C@H]2O
C      -2.53155622     -0.30788664      1.48093254
C      -2.32551658     -0.16851112     -0.04910791
C      -1.81213359     -1.49805362     -0.62039660
C      -0.37335254     -1.80578021     -0.16280546
C       0.61998816     -0.64329266     -0.42610291
C       2.04753330     -0.89138250      0.05824341
C       2.60851018     -2.18189706      0.04155020
C       3.92756585     -2.40793530      0.44476729
C       4.70704158     -1.33855574      0.85745603
O       5.99704283     -1.51100599      1.26291309
C       4.19056018     -0.05090897      0.86329236
C       2.86814506      0.18892551      0.45121849
C       2.36454622      1.61120576      0.49939090
C       1.04312059      1.82696198     -0.23215056
C       0.06420764      0.70553163      0.12200094
C      -1.33086941      0.93726528     -0.46123964
C      -2.06770388      2.22803488     -0.11937287
C      -3.54962474      1.90763029     -0.39762808
C      -3.62764340      0.38921411     -0.66125342
O      -3.66787602      0.16509788     -2.06754168
H      -1.62088031     -0.60264955      2.00851864
H      -2.88230692      0.61846371      1.94625631
H      -3.28606683     -1.07549015      1.69055831
H      -1.81615043     -1.47207854     -1.71726629
H      -2.47463838     -2.32217278     -0.32968849
H      -0.36501885     -2.06885725      0.90163345
H      -0.05322803     -2.70607079     -0.70006830
H       0.70333611     -0.54909422     -1.52001093
H       2.03081860     -3.03830308     -0.29456209
H       4.32189153     -3.41857917      0.42335799
H       6.21392145     -2.45540736      1.20183275
H       4.82293084      0.77173249      1.18829762
H       2.23772011      1.88683352      1.55424336
H       3.11591503      2.28588225      0.07140638
H       0.64223313      2.80795307      0.04592879
H       1.21491763      1.84798296     -1.31611568
H      -0.00079647      0.65858743      1.21688314
H      -1.22314450      0.92746870     -1.55825711
H      -1.92686271      2.50722255      0.93084292
H      -1.72428973      3.06815962     -0.73180283
H      -4.14598031      2.17866024      0.48074630
H      -3.91796184      2.49104514     -1.24823932
H      -4.52790742     -0.05740626     -0.22663852
H      -4.49043689      0.56145992     -2.40244152
