14
Oc1ccccc1O
O      -1.73835249     -1.56784666      0.02972462
C      -0.66356761     -0.72189387      0.01735011
C       0.64311870     -1.19304651      0.07525700
C       1.69786338     -0.27607625      0.05889197
C       1.43985160      1.09701681     -0.01481318
C       0.12521690      1.56178721     -0.07262336
C      -0.91667948      0.64619568     -0.05597964
O      -2.20384781      1.09895261     -0.11246838
H      -1.40223678     -2.47887100      0.08304354
H       0.86099857     -2.25427324      0.13271451
H       2.72528571     -0.62945005      0.10359279
H       2.26429373      1.80552522     -0.02720509
H      -0.08436520      2.62532958     -0.12997364
H      -2.74757923      0.28665048     -0.08751126
