16
Nc1cc(Cl)nc(C(=O)O)c1Cl
N      -2.53112034     -1.01393818      0.20149141
C      -1.31149881     -0.31065903      0.15926497
C      -1.34731009      1.07148264     -0.04049247
C      -0.15409501      1.74704679     -0.21007349
Cl     -0.12295723      3.44464847     -0.43708134
N       1.05830771      1.16418985     -0.22380313
C       1.07424129     -0.20023537     -0.07566905
C       2.46349207     -0.76502216     -0.12347854
O       2.79011267     -1.92894112     -0.00148676
O       3.36238743      0.23597779     -0.32429019
C      -0.07036611     -0.97736209      0.09830663
Cl     -0.04891493     -2.69800255      0.27029561
H      -2.44373072     -1.96334582      0.56528051
H      -3.31799416     -0.51273863      0.60335644
H      -2.28993057      1.60771509     -0.07076714
H       2.88937681      1.09918432     -0.39085347
