19
Cc1ccc([N+](=O)[O-])c([N+](=O)[O-])c1
C       2.91924829     -0.30872187     -0.26842190
C       1.42147387     -0.31014054     -0.15178136
C       0.71725941     -1.52432920     -0.10755803
C      -0.67834548     -1.53874803     -0.02481178
C      -1.37667852     -0.32550166     -0.00114212
N      -2.81535130     -0.36782300      0.16559365
O      -3.29178928      0.30986131      1.08402263
O      -3.44802491     -1.11893562     -0.58669898
C      -0.68859087      0.88289085     -0.07271545
N      -1.39062436      2.14818619     -0.14736240
O      -2.27147882      2.24855825     -1.00982054
O      -1.01800959      3.04537246      0.61850482
C       0.71147968      0.89953341     -0.14895122
H       3.35043252     -1.18073708      0.23435728
H       3.34624602      0.58238102      0.20354635
H       3.21175625     -0.32640679     -1.32272288
H       1.25758896     -2.47058453     -0.13056436
H      -1.20455797     -2.49065388      0.02769894
H       1.24796610      1.84579871     -0.21520765
