21
CC(O)C(C)(C)C
C       1.90543527     -0.75106506      0.42626493
C       1.02507990      0.37262041     -0.11609328
O       1.36939931      0.57532634     -1.48898517
C      -0.50903450      0.13317921      0.00579342
C      -0.95901200     -1.11095897     -0.78311975
C      -1.25851453      1.35630565     -0.56590271
C      -0.92003501     -0.03537864      1.47978393
H       1.75819664     -1.68166932     -0.13069131
H       2.96325268     -0.49042878      0.30531630
H       1.72810443     -0.93754413      1.48836525
H       1.28186919      1.29774964      0.41529980
H       2.31671947      0.79148153     -1.52652663
H      -0.68291312     -1.03911633     -1.84060725
H      -2.04754279     -1.23264139     -0.73580386
H      -0.51504360     -2.02703082     -0.38017954
H      -0.96808314      2.27501604     -0.04389489
H      -1.05049793      1.49607527     -1.63234340
H      -2.34332661      1.24279811     -0.45709117
H      -2.00990524     -0.09557986      1.58113541
H      -0.57738610      0.81180627      2.08419859
H      -0.50676234     -0.95094517      1.91508134
