29
Cc1ccc2c(c1N)C(=O)c1ccccc1C2=O
C      -4.41879462     -0.20641799      0.00607284
C      -2.95519283     -0.32267858     -0.33079034
C      -2.57475369     -1.13245469     -1.41117032
C      -1.23030288     -1.30968256     -1.72515980
C      -0.24411852     -0.67771042     -0.96174056
C      -0.60119542      0.15067318      0.10617606
C      -1.96880111      0.35734597      0.41940585
N      -2.35218033      1.04880762      1.58815267
C       0.47323898      0.84527546      0.86657444
O       0.20835321      1.69861518      1.70938820
C       1.88774751      0.53034163      0.58516485
C       2.89725550      1.10295376      1.37128993
C       4.23826771      0.81989866      1.10556777
C       4.57593946     -0.03115755      0.05437655
C       3.57290523     -0.59987251     -0.73187941
C       2.22657611     -0.31811502     -0.46390320
C       1.17347020     -0.91799465     -1.30065498
O       1.47396350     -1.61608072     -2.26255620
H      -4.60277156     -0.54615157      1.03040502
H      -4.75098121      0.83102191     -0.10236158
H      -5.03556902     -0.82101906     -0.65839787
H      -3.32653946     -1.64947080     -2.00507587
H      -0.95578697     -1.95412232     -2.55889270
H      -3.23633010      1.53964070      1.52539513
H      -1.60053444      1.65495210      1.94153154
H       2.64314730      1.77121439      2.19240488
H       5.01890702      1.26542543      1.71830569
H       5.62045999     -0.25138952     -0.15481929
H       3.84362043     -1.26184803     -1.55280932
