9
OCCF
O       1.46764862      0.53739188     -0.30292026
C       0.53543242     -0.47162543      0.08070327
C      -0.88596248      0.00699315     -0.15459299
F      -1.13127350      1.04737380      0.69286511
H       1.20592392      1.34808818      0.17327292
H       0.74465127     -1.36675829     -0.51139032
H       0.69965651     -0.69718710      1.13849906
H      -1.61318353     -0.78059064      0.05809076
H      -1.02289323      0.37631444     -1.17452755
