17
S=C=NCc1ccccc1
S       3.67554857      1.58658206     -1.46186851
C       2.99053204      0.12169471     -0.67493223
N       2.55195297     -0.83526841     -0.15581724
C       1.58812832     -0.55457487      0.92134176
C       0.19968647     -0.24837645      0.40957943
C      -0.37239867      1.01665767      0.60147721
C      -1.65202962      1.29349961      0.11698453
C      -2.36949688      0.31148873     -0.56383366
C      -1.80864447     -0.94849808     -0.76294493
C      -0.52969818     -1.22771928     -0.27977412
H       1.52468112     -1.44346441      1.56221230
H       1.94811371      0.25081218      1.57789973
H       0.17272350      1.79741778      1.12713388
H      -2.08933301      2.27704456      0.26887613
H      -3.36502935      0.52905469     -0.94176678
H      -2.36595864     -1.71347062     -1.29732334
H      -0.09877787     -2.21287987     -0.44724417
