10
ClCC1CO1
Cl      1.39327931     -0.80708530     -1.77667501
C       1.05409220     -0.62168855     -0.04239122
C      -0.40167187     -0.37152863      0.13709138
C      -0.97493022      1.02062533      0.08796026
O      -0.73868694      0.34519222      1.33257225
H       1.35286469     -1.54431053      0.46311126
H       1.66889336      0.20109212      0.33512506
H      -1.02567961     -1.21037244     -0.14084396
H      -0.32455271      1.84805464     -0.16717927
H      -2.00360822      1.14002114     -0.22877076
