29
CCCCOC(=O)c1ccc(N)cc1
C       4.33902116      1.72155674      0.05512111
C       3.23699967      0.74675957      0.43941306
C       3.15750378     -0.42298440     -0.54432163
C       2.07913256     -1.43100471     -0.15590622
O       0.79824915     -0.79099833     -0.21653315
C      -0.24191352     -1.59000626      0.12809431
O      -0.16242249     -2.76229815      0.45980180
C      -1.52571211     -0.84187159      0.04629674
C      -2.70871151     -1.51830208      0.36535864
C      -3.93893739     -0.85513730      0.30561946
C      -4.01324080      0.47536188     -0.11276206
N      -5.22812426      1.16529380     -0.05453410
C      -2.82527626      1.16317133     -0.37299302
C      -1.58932864      0.50873670     -0.31560636
H       5.31594580      1.22767571      0.05084771
H       4.16150611      2.14168112     -0.94002247
H       4.37984964      2.54866088      0.77077265
H       2.28170695      1.28319902      0.46847285
H       3.42793732      0.36907600      1.45061604
H       2.94111461     -0.02999930     -1.54523845
H       4.12592395     -0.93444887     -0.58969383
H       2.26027138     -1.80662239      0.85811683
H       2.09715090     -2.26938929     -0.86191202
H      -2.67902211     -2.56100982      0.67579372
H      -4.84072407     -1.39147863      0.58990420
H      -5.26576355      1.98891250     -0.64685095
H      -6.04547489      0.57334288     -0.16623030
H      -2.85026391      2.22065706     -0.62400050
H      -0.68739748      1.07146593     -0.54216234
