22
Brc1ccc(-c2ccccc2)cc1
Br      5.35018865      0.08253639     -0.75804914
C       3.47937054      0.05367641     -0.49110788
C       2.66073262      0.89652107     -1.23744738
C       1.27686887      0.87368618     -1.03762949
C       0.69389853      0.01070598     -0.09365425
C      -0.76333753     -0.01177530      0.11427487
C      -1.47149689      1.16634149      0.40496656
C      -2.85483604      1.14575640      0.60307233
C      -3.55431235     -0.05483390      0.51250278
C      -2.87209525     -1.23410723      0.22478913
C      -1.48857650     -1.21200587      0.02810857
C       1.54337670     -0.83017672      0.64592756
C       2.92794469     -0.81030377      0.45072278
H       3.08389348      1.57129047     -1.97660883
H       0.64878341      1.53041212     -1.63691307
H      -0.94332891      2.11381167      0.49173996
H      -3.38357317      2.06769274      0.83058765
H      -4.63009657     -0.07142992      0.66599912
H      -3.41523189     -2.17258086      0.15021364
H      -0.97734507     -2.14344020     -0.20696959
H       1.12806623     -1.50299933      1.39409025
H       3.56110644     -1.46877780      1.03915906
