121
CC[C@H]1OC(=O)[C@H](C)[C@@H](O[C@H]2C[C@@](C)(OC)[C@@H](O)[C@H](C)O2)[C@H](C)[C@@H](O[C@@H]2O[C@H](C)C[C@H](N(C)C)[C@H]2O)[C@](C)(OC)C[C@@H](C)C(=O)[C@H](C)[C@@H](O)[C@]1(C)O
C      -2.17793795      5.14130837     -3.11456878
C      -2.34816611      5.40651870     -1.61813789
C      -2.87430972      4.16807843     -0.86818520
O      -1.86715571      3.13302914     -0.97459003
C      -2.31053198      1.88589048     -1.29610974
O      -3.46400455      1.50217722     -1.17095098
C      -1.17469868      1.06897251     -1.89199894
C      -1.62017708      0.58020499     -3.26246566
C      -0.74061222     -0.02175407     -0.87755064
O      -1.49409831     -1.20650637     -1.13015823
C      -2.34560331     -1.62838543     -0.06839800
C      -3.68771241     -2.07366227     -0.65578710
C      -4.18187517     -3.40692948     -0.07478308
C      -4.57078643     -3.28942098      1.40789942
O      -5.31215999     -3.91538802     -0.84047145
C      -6.50004319     -3.13850951     -0.81730042
C      -3.06383120     -4.46455818     -0.25736576
O      -3.07786547     -4.93390367     -1.62319010
C      -1.65467436     -3.90517319      0.03352489
C      -0.85389615     -4.85524500      0.92366742
O      -1.70367085     -2.64217997      0.70655868
C       0.79182978     -0.32647002     -0.96532686
C       1.09883884     -1.44771590     -1.97827337
C       1.49865075     -0.66388104      0.40823958
O       2.90885046     -0.78715856      0.10545674
C       3.56743572     -1.88708526      0.73938856
O       4.74908014     -1.44291126      1.41398056
C       5.73167884     -0.84951420      0.56127125
C       5.70272625      0.67239484      0.70734112
C       5.64542219     -1.29688911     -0.90502479
C       5.29510775     -2.78816918     -0.98349838
N       5.28197919     -3.33294103     -2.37651290
C       6.50859475     -3.02437133     -3.12032094
C       5.08641895     -4.79475494     -2.36631693
C       3.93476374     -3.02280126     -0.24693021
O       4.02908824     -4.26351735      0.48825141
C       1.29470808      0.41071774      1.57349159
C       2.31541554      0.23830967      2.72090422
O      -0.04101008      0.33356369      2.10556446
C      -0.33695217     -0.76681056      2.95988260
C       1.45643037      1.85285645      1.00555060
C       1.15426109      2.99511185      2.00351200
C       2.37725486      3.88718258      2.20826393
C       0.00911035      3.86348825      1.47793690
O       0.17899096      4.52917342      0.44309381
C      -1.24764211      4.04102909      2.32980990
C      -1.80267908      2.73317974      2.88416923
C      -2.33952186      4.94024149      1.67616631
O      -1.76466832      6.19841673      1.28193283
C      -3.35419536      4.38143276      0.60748714
C      -4.57791458      5.32916786      0.58494455
O      -3.87754301      3.12818210      1.08813330
H      -3.13334052      4.86717979     -3.57639000
H      -1.44867738      4.34040020     -3.31037262
H      -1.81564167      6.04276184     -3.61319788
H      -1.36293275      5.69764981     -1.23640642
H      -3.03125251      6.25734675     -1.50371080
H      -3.75343213      3.83269964     -1.44139547
H      -0.34916862      1.76871345     -2.05009207
H      -0.79719967      0.09942610     -3.79493518
H      -1.96688065      1.41811236     -3.87495041
H      -2.45244177     -0.12490503     -3.20152065
H      -0.97635600      0.36329938      0.10868660
H      -2.54697988     -0.79501446      0.61430681
H      -3.63248007     -2.13966580     -1.75167641
H      -4.42421585     -1.28338994     -0.45992298
H      -5.09958803     -4.19922337      1.72097170
H      -5.25324921     -2.44861049      1.57944555
H      -3.70961414     -3.15475455      2.07093942
H      -7.21018916     -3.59324367     -1.51109842
H      -6.96323934     -3.14718175      0.17694618
H      -6.33381169     -2.10260763     -1.13739375
H      -3.28337933     -5.35118913      0.35532165
H      -4.02661768     -4.93255215     -1.86819094
H      -1.09317159     -3.77815370     -0.90127344
H      -1.28505526     -4.91056921      1.93413227
H       0.16899419     -4.47771463      1.04370434
H      -0.81241881     -5.86048924      0.49440574
H       1.30692569      0.56159652     -1.35862121
H       2.14951204     -1.43049513     -2.27969041
H       0.88428726     -2.43682515     -1.56049023
H       0.51586863     -1.35343093     -2.89661193
H       1.10046487     -1.63275909      0.73415131
H       2.92819221     -2.31417447      1.52039311
H       6.69543053     -1.19359131      0.96230911
H       6.54060704      1.12973095      0.16959443
H       5.76281938      0.96146062      1.76723522
H       4.76982332      1.09555012      0.32076862
H       4.89464348     -0.71516095     -1.45580415
H       6.61403891     -1.07580783     -1.36875565
H       6.07501164     -3.33277835     -0.42948806
H       6.51317460     -3.52480213     -4.09269626
H       7.41422584     -3.31653799     -2.57660652
H       6.56621408     -1.95352847     -3.34815665
H       4.09849656     -5.06088514     -1.98080863
H       5.11520597     -5.19392343     -3.38686908
H       5.86283325     -5.30158361     -1.77811480
H       3.12162074     -3.15131126     -0.96429105
H       4.59826373     -4.10128906      1.26819690
H       2.04955764      0.83860874      3.60101484
H       2.34858621     -0.79558609      3.06954440
H       3.32335421      0.52311811      2.41913276
H       0.05453200     -1.71328230      2.58217648
H       0.06317731     -0.57720176      3.96068402
H      -1.42377294     -0.85035970      3.04625083
H       2.46462825      1.96549939      0.58840141
H       0.76728065      1.97771556      0.17144483
H       0.88373767      2.60433239      2.98530243
H       2.72794936      4.30378912      1.25503085
H       3.19853126      3.32430858      2.66575407
H       2.13791907      4.72365710      2.87791389
H      -0.87775268      4.61334572      3.19553359
H      -1.97968840      2.00469876      2.08752642
H      -2.73880556      2.90572883      3.43138792
H      -1.11616924      2.28035709      3.60210997
H      -2.96949918      5.21403430      2.54195803
H      -1.01449862      5.97326637      0.69767990
H      -5.03922421      5.37916326      1.57415635
H      -4.31362177      6.35158881      0.28358619
H      -5.35585860      4.95933052     -0.08916091
H      -4.37638210      2.70208772      0.35838821
