25
Oc1ccc(N=Nc2ccccc2)cc1
O      -5.54039561     -0.07167990      0.41094490
C      -4.18558254     -0.16699320      0.29655989
C      -3.57139511     -0.31454113     -0.94271381
C      -2.17834227     -0.40838910     -1.00843453
C      -1.39890332     -0.34517360      0.15663175
N       0.00227333     -0.46727869      0.12136905
N       0.50909582      0.44816552     -0.56433117
C       1.91147365      0.33478491     -0.58578416
C       2.68934794      1.39048219     -0.09836238
C       4.08419379      1.32293319     -0.13304721
C       4.71351481      0.19883956     -0.66596897
C       3.95059599     -0.85496384     -1.16679521
C       2.55607304     -0.78421541     -1.13078810
C      -2.04100715     -0.20929609      1.39241937
C      -3.43268388     -0.11552824      1.46375607
H      -5.93174320     -0.11482590     -0.47692208
H      -4.15048174     -0.36064879     -1.85923518
H      -1.69083295     -0.53047408     -1.97231269
H       2.20085173      2.26944594      0.31411326
H       4.67716698      2.14736519      0.25421554
H       5.79901937      0.14520225     -0.69328266
H       4.43896050     -1.73052199     -1.58639991
H       1.96416027     -1.60485079     -1.52736500
H      -1.45027670     -0.17328729      2.30388161
H      -3.92508276     -0.00455070      2.42556022
