8
CC
C      -0.74828715     -0.03073202     -0.10344927
C       0.74828711      0.03073181      0.10344948
H      -1.16785371     -0.91520367      0.38511369
H      -1.23116657      0.85656172      0.31673831
H      -0.98714803     -0.08042666     -1.16998363
H       1.16785360      0.91520258     -0.38511503
H       0.98714810      0.08042837      1.16998376
H       1.23116664     -0.85656213     -0.31673731
