54
CCC(=O)O[C@](Cc1ccccc1)(c1ccccc1)[C@H](C)CN(C)C
C      -0.56561897     -1.85617747     -4.07954788
C      -0.54173973     -1.91600507     -2.56259292
C      -0.26096652     -0.56590383     -1.94735191
O      -0.20258860      0.48749685     -2.56298090
O      -0.09917127     -0.71873060     -0.60740645
C       0.26097477      0.39998518      0.27730474
C       1.61748767      1.02376524     -0.21984817
C       2.70556993      0.04965063     -0.64438802
C       3.39226998     -0.73924871      0.28716417
C       4.38554975     -1.62990645     -0.12727058
C       4.71210620     -1.73705896     -1.47672543
C       4.04983745     -0.94866299     -2.41337081
C       3.05751052     -0.05839372     -1.99967775
C       0.40742595     -0.20941815      1.69717457
C      -0.06095446     -1.50692671      1.98716651
C       0.06178482     -2.05911532      3.26572366
C       0.65297339     -1.32702803      4.28884214
C       1.12032682     -0.04287987      4.03389610
C       0.99831066      0.50877176      2.75477702
C      -0.91502214      1.46258773      0.24787270
C      -0.66554641      2.73472169      1.07321364
C      -2.28353448      0.82743413      0.62382426
N      -3.44539240      1.72626085      0.45327659
C      -4.62847072      1.13894126      1.08897769
C      -3.72853371      1.99113380     -0.96008319
H      -1.34790165     -1.17704415     -4.43447330
H      -0.75947336     -2.84884290     -4.49734866
H       0.39188105     -1.49882555     -4.47332406
H      -1.50928081     -2.27013144     -2.19200907
H       0.24134641     -2.61283395     -2.24473633
H       1.40780472      1.67810184     -1.07629076
H       2.05352798      1.69803176      0.52615686
H       3.16908794     -0.67283894      1.34818254
H       4.90561913     -2.23859066      0.60773384
H       5.48579867     -2.42940704     -1.79649186
H       4.30657312     -1.02260536     -3.46675635
H       2.55525338      0.55207783     -2.74881281
H      -0.53235894     -2.11502537      1.21822626
H      -0.30680627     -3.06322016      3.45890073
H       0.74748702     -1.75550124      5.28280594
H       1.58074331      0.53523118      4.83128993
H       1.37810018      1.51651844      2.60619230
H      -0.99317295      1.80675605     -0.78747135
H      -1.39872358      3.50794680      0.81763850
H      -0.75856280      2.55131226      2.14721578
H       0.31985597      3.16357138      0.87332956
H      -2.44961466     -0.09472742      0.05333128
H      -2.23514226      0.53794364      1.68112007
H      -4.45628702      0.98694182      2.16031140
H      -4.90232496      0.17600730      0.64263765
H      -5.48681782      1.81508753      1.00601317
H      -3.89627051      1.06880684     -1.52786023
H      -4.62001982      2.62096946     -1.06100368
H      -2.91490994      2.54899682     -1.43247712
