17
Cc1ccccc1[N+](=O)[O-]
C       2.13341860      0.00744202     -0.33416600
C       0.66074243     -0.22724213     -0.14701936
C       0.14549541     -1.51730749     -0.35155877
C      -1.21753791     -1.78285297     -0.18392270
C      -2.09511559     -0.76522275      0.18692584
C      -1.61376031      0.52709085      0.38392435
C      -0.24629885      0.78961440      0.20712054
N       0.20035577      2.16461597      0.40758993
O       0.92167329      2.66832143     -0.46400934
O      -0.19271669      2.74217907      1.43104312
H       2.32059206      0.50353883     -1.29136128
H       2.54002583      0.61276646      0.48233514
H       2.68805683     -0.93739973     -0.33083439
H       0.80580169     -2.33373126     -0.64070788
H      -1.59441228     -2.79124491     -0.34256320
H      -3.15305198     -0.97995988      0.31878795
H      -2.30326828      1.31939208      0.66841605
