20
Cc1ccc([N+](=O)[O-])cc1C
C      -2.19062577      1.30655300     -0.11003600
C      -0.79002756      0.75479048     -0.07547145
C       0.29583232      1.63589488     -0.21380043
C       1.60896996      1.16420178     -0.18713532
C       1.84273407     -0.20351532     -0.02042311
N       3.22145803     -0.70712149      0.00862991
O       4.13974232      0.11598519     -0.11815778
O       3.38867295     -1.92629132      0.15823976
C       0.77292030     -1.09765568      0.11914864
C      -0.55021524     -0.62592581      0.09273179
C      -1.68354847     -1.60498239      0.24460408
H      -2.19152991      2.39315619     -0.24716661
H      -2.70647802      1.09313490      0.83142696
H      -2.75091911      0.86923762     -0.94240573
H       0.12339496      2.70315493     -0.34413617
H       2.42863893      1.87096410     -0.29680608
H       0.95986376     -2.16260262      0.24883385
H      -2.27897012     -1.36263709      1.13046042
H      -1.31661677     -2.62987480      0.36476616
H      -2.32329664     -1.58646657     -0.64330291
