27
CCCCOCCOC(C)=O
C       3.68130099      0.94566359     -1.39112900
C       3.61844686     -0.31561194     -0.54367382
C       2.31650299     -0.45212293      0.24565945
C       1.08332250     -0.61711949     -0.64094268
O      -0.06935380     -0.96345329      0.12794881
C      -0.65269920      0.15057838      0.81249131
C      -1.94622635     -0.30371828      1.49027734
O      -2.95652056     -0.65046983      0.52431664
C      -3.60735645      0.39828392     -0.04446320
C      -4.61562387     -0.09916538     -1.03399853
O      -3.40679958      1.57873965      0.20519455
H       3.51608986      1.83848980     -0.77986030
H       4.66637515      1.03401322     -1.86051014
H       2.93408866      0.92957503     -2.18994272
H       3.76015963     -1.19334246     -1.18485143
H       4.45535973     -0.30261991      0.16467647
H       2.19528274      0.41687872      0.90247893
H       2.39206798     -1.31991820      0.91285487
H       1.24891799     -1.44220503     -1.34215429
H       0.88106226      0.28005820     -1.23607798
H      -0.84910626      0.95161707      0.09292470
H       0.04205761      0.51069926      1.57716331
H      -1.76121272     -1.20790175      2.07993147
H      -2.32727493      0.46532798      2.17213152
H      -5.13516612      0.75300402     -1.48146638
H      -5.35180673     -0.72917937     -0.52855805
H      -4.11188836     -0.65610098     -1.82800519
