51
Cc1c(COC(=O)C2C(/C=C(\Cl)C(F)(F)F)C2(C)C)cccc1-c1ccccc1
C       3.01743189      0.59398807      1.66720918
C       2.57262018      0.40291014      0.23435828
C       1.19675684      0.50612301     -0.10714937
C       0.15322477      0.82798898      0.95014238
O      -1.17484923      0.57893831      0.47533967
C      -2.13592496      0.82065350      1.40061699
O      -1.95569182      1.22072496      2.54083855
C      -3.49825933      0.56345262      0.87499250
C      -3.76646601     -0.50898006     -0.16148977
C      -4.72269726     -0.24873448     -1.24951556
C      -4.59052574      0.60535030     -2.28275211
Cl     -3.16359549      1.58276894     -2.44905865
C      -5.61151752      0.79541249     -3.36662359
F      -5.11726938      0.49231778     -4.59483201
F      -6.70794200      0.00855647     -3.19040720
F      -6.06451456      2.07439115     -3.42524765
C      -4.25706980     -0.69701374      1.26695469
C      -3.56414990     -1.75668185      2.09192409
C      -5.71488866     -0.52783204      1.62347924
C       0.81271491      0.34304690     -1.44985520
C       1.74892448      0.04389857     -2.43417107
C       3.08916670     -0.09878276     -2.09246702
C       3.52288484      0.06910729     -0.76606594
C       4.95266809     -0.11886335     -0.47385960
C       5.88844734      0.87447604     -0.80250166
C       7.24643987      0.69400219     -0.52993255
C       7.68655135     -0.48390036      0.07054221
C       6.77095256     -1.48198887      0.39841899
C       5.41311774     -1.30122426      0.12601511
H       2.95814584     -0.35778316      2.20376298
H       4.04036513      0.97607422      1.73283073
H       2.39973259      1.33353543      2.18514963
H       0.24575437      1.88682692      1.21922732
H       0.32662931      0.19161729      1.82586779
H      -4.07969421      1.47869696      0.80971399
H      -2.92499129     -1.12293226     -0.47685712
H      -5.63150394     -0.85065330     -1.21588336
H      -2.52801799     -1.92049965      1.77824066
H      -4.09093536     -2.71198770      1.99771689
H      -3.55613057     -1.47167904      3.14928264
H      -6.27324681     -1.43743323      1.37855316
H      -6.18214673      0.31007768      1.09581845
H      -5.82190827     -0.33909989      2.69713337
H      -0.22971715      0.44365829     -1.74438588
H       1.43247601     -0.08693383     -3.46557693
H       3.80811948     -0.35136460     -2.87036506
H       5.55722970      1.79979228     -1.26949573
H       7.95880701      1.47316950     -0.78742496
H       8.74326083     -0.62475352      0.28160801
H       7.11257938     -2.40266331      0.86400238
H       4.70865276     -2.08977100      0.38272456
