24
NCCN1CCNCC1
N       3.80305246     -0.03002527     -0.21059745
C       2.44694498      0.51549818     -0.31908683
C       1.37804839     -0.59077181     -0.19855712
N      -0.00275940     -0.09857745     -0.36660180
C      -0.43938343      0.73739586      0.77184457
C      -1.91777022      1.17320534      0.64853554
N      -2.84156666      0.03882830      0.50241785
C      -2.40363910     -0.79850613     -0.62468543
C      -0.93055740     -1.24426196     -0.50111513
H       4.47403397      0.73359109     -0.28505092
H       3.93270417     -0.43482147      0.71564774
H       2.34767773      1.02028664     -1.28646434
H       2.31944030      1.26875125      0.46452205
H       1.58631701     -1.32876006     -0.98514375
H       1.48778626     -1.11319331      0.76134154
H       0.16587653      1.64867732      0.82288497
H      -0.30398295      0.19797617      1.71891017
H      -2.19806280      1.73889403      1.54389675
H      -2.03087635      1.85110961     -0.20717423
H      -3.77744570      0.39261683      0.31040949
H      -3.04303989     -1.68692732     -0.66942081
H      -2.54644155     -0.25246176     -1.56589296
H      -0.83233402     -1.92032915      0.35922939
H      -0.67402234     -1.81819494     -1.39984929
