24
CC(=O)CC(=O)Nc1ccccc1
C      -4.25608183     -0.23275142     -0.40547742
C      -2.81025117     -0.63778714     -0.51236786
O      -2.30963753     -1.44363463      0.27664028
C      -2.00818085     -0.05076886     -1.64348619
C      -0.66813885      0.52931205     -1.25000312
O      -0.28806876      1.57531658     -1.77173358
N       0.04186119     -0.23992298     -0.35029728
C       1.33142291     -0.00314574      0.16588169
C       2.16257315      1.03810350     -0.24869908
C       3.43184696      1.19853771      0.31697436
C       3.88061652      0.31827763      1.29848846
C       3.06169007     -0.72735696      1.71475520
C       1.79322644     -0.88595052      1.15099867
H      -4.32658541      0.85358871     -0.30369798
H      -4.70034665     -0.69514967      0.47984050
H      -4.79832098     -0.56728938     -1.29355355
H      -2.59501096      0.75053370     -2.10745596
H      -1.85233541     -0.82861585     -2.39862462
H      -0.45654986     -1.03443387      0.05399008
H       1.85543553      1.74381234     -1.01338639
H       4.06717035      2.01701900     -0.01247261
H       4.86746058      0.44719508      1.73512772
H       3.40661723     -1.41811928      2.47941379
H       1.16958732     -1.70677001      1.49606190
