20
C1=Cc2cccc3cccc1c23
C      -0.71209872      2.30783743      0.36242309
C      -1.83785535      1.60162588      0.14706530
C      -1.45611183      0.21317180     -0.07461179
C      -2.17695198     -0.93584523     -0.33863964
C      -1.47383734     -2.14401274     -0.50268050
C      -0.06584549     -2.19307183     -0.40210691
C       0.66445282     -1.01870751     -0.13275757
C       2.05778121     -0.86087161      0.00412629
C       2.60269630      0.41329385      0.27713659
C       1.77906995      1.54585860      0.41813990
C       0.41317205      1.38581409      0.28298786
C      -0.09241208      0.14168448      0.01845588
H      -0.62798312      3.36343742      0.56004518
H      -2.85031550      1.96932087      0.13491515
H      -3.25846652     -0.91229858     -0.41844429
H      -2.02498014     -3.05863919     -0.71109991
H       0.44988943     -3.14049366     -0.53353900
H       2.71860599     -1.71727783     -0.09952793
H       3.68046639      0.52052342      0.38033025
H       2.21072392      2.51865033      0.62778206
