8
O=P([O-])(O)O.[K+]
O      -0.60172999      0.57891759      1.52162085
P       0.03516384      0.38991065      0.18242327
O       0.78349811      1.43661682     -0.57863432
O      -1.10037805     -0.24189135     -0.75647884
O       0.99820880     -0.89101648      0.22643781
K       0.00000000      0.00000000      0.00000000
H      -1.74805416     -0.57170793     -0.10978132
H       1.63329146     -0.70082930     -0.48558745
