46
CCOP(=S)(NC(C)C)Oc1ccccc1C(=O)OC(C)C
C      -2.51175626      3.37156898     -0.82118126
C      -1.57690819      2.19397052     -0.63784096
O      -2.34218348      1.07296952     -0.22031507
P      -1.81810481     -0.41633208     -0.59581560
S      -1.94027942     -0.83256593     -2.49255621
N      -2.65549736     -1.33679196      0.49002610
C      -4.03751075     -1.73898625      0.24325326
C      -4.41992805     -2.79138215      1.28479784
C      -4.99971216     -0.55522741      0.31502378
O      -0.32263454     -0.34626282      0.01787753
C       0.64369407     -1.30716565     -0.10368850
C       0.32955645     -2.66794852     -0.15499357
C       1.34522373     -3.62228295     -0.24719375
C       2.67932982     -3.22575357     -0.28093314
C       3.00236250     -1.87021462     -0.21983378
C       1.98817377     -0.90235612     -0.12544500
C       2.34120669      0.54323205     -0.08840026
O       1.63823713      1.44471012     -0.51422030
O       3.55092508      0.69472126      0.51079282
C       4.02838194      2.04687436      0.64097729
C       4.71915743      2.47081502     -0.65020303
C       5.00779472      2.06610468      1.80818195
H      -1.95967237      4.26437466     -1.12735939
H      -3.26900094      3.14663821     -1.57941020
H      -3.04748428      3.58837782      0.10885119
H      -0.84041998      2.41901206      0.13880721
H      -1.05014461      1.98610656     -1.57368389
H      -2.59255120     -0.91088278      1.40927474
H      -4.11734338     -2.20773623     -0.74327067
H      -3.75319381     -3.65916417      1.22800202
H      -5.44153596     -3.14871774      1.11593196
H      -4.36858129     -2.39029132      2.30335271
H      -6.03618307     -0.89321232      0.20664381
H      -4.80756175      0.16320661     -0.48805332
H      -4.91910882     -0.02762011      1.27197254
H      -0.69796064     -3.01769960     -0.11809035
H       1.09142881     -4.67907858     -0.29302658
H       3.46742676     -3.97121384     -0.35755375
H       4.04893332     -1.57623428     -0.25742671
H       3.19880090      2.72619397      0.87257595
H       4.01803485      2.45741057     -1.49097583
H       5.13364843      3.47990362     -0.56428373
H       5.52885915      1.77855560     -0.90635490
H       4.51113733      1.73650130      2.72714579
H       5.41308774      3.06934487      1.97138982
H       5.83985650      1.37452865      1.63544279
