15
ClCCSCCCl
Cl      2.97759041      1.16525188      0.58329965
C       2.12461119     -0.39668799      0.58493738
C       1.44330450     -0.69603308     -0.74746291
S       0.10360877      0.45331212     -1.23518511
C      -1.09139066      0.13471139      0.10583262
C      -2.41064727      0.83393023     -0.19363238
Cl     -3.58335841      0.50489282      1.10981066
H       1.41778547     -0.39824153      1.41905534
H       2.87589978     -1.16562281      0.79089246
H       2.18706536     -0.68458613     -1.55198521
H       1.02272014     -1.70713943     -0.72420387
H      -1.24613400     -0.94593451      0.19151204
H      -0.67703547      0.50710918      1.04767233
H      -2.28815554      1.91988717     -0.25365928
H      -2.85586426      0.47515068     -1.12688373
