59
N#C[C@H](O[C@@H]1O[C@H](CO[C@@H]2O[C@H](CO)[C@@H](O)[C@H](O)[C@H]2O)[C@@H](O)[C@H](O)[C@H]1O)c1ccccc1
N       4.16091799     -3.07856669     -0.14141932
C       4.25791197     -1.92183275     -0.05069310
C       4.37891268     -0.44771168      0.05484636
O       3.37171598      0.21289820     -0.73306517
C       2.25410259      0.62496402      0.06270923
O       1.67597655     -0.50693842      0.69403647
C       0.28183115     -0.40680415      1.05872861
C      -0.54747984     -1.28344783      0.09771380
O      -1.69323472     -1.83974300      0.74621541
C      -2.93828916     -1.42158698      0.17950500
O      -3.25283353     -0.10891422      0.62442630
C      -4.50212177      0.36744065      0.11204717
C      -4.70804731      1.81997651      0.57571651
O      -5.83319030      2.43102536     -0.04394198
C      -5.65452291     -0.53080750      0.59051875
O      -6.90393994     -0.09513439      0.04472459
C      -5.38532945     -1.97953148      0.17525844
O      -6.41519655     -2.82200128      0.72288858
C      -4.00487536     -2.42349000      0.66223860
O      -3.74646824     -3.74544546      0.16977304
C      -0.22010284      1.04694021      1.15922823
O       0.47429332      1.66920179      2.26106699
C       0.08096428      1.86744929     -0.10725936
O      -1.06167657      1.91126206     -0.96964146
C       1.27133666      1.30930508     -0.89303864
O       1.88682576      2.36848805     -1.64194586
C       5.71719997      0.05622139     -0.45806995
C       6.55921196      0.80432484      0.38065987
C       7.78961435      1.27360251     -0.08427819
C       8.18998787      1.00800348     -1.39233255
C       7.36044609      0.27360524     -2.24009437
C       6.12964358     -0.19568035     -1.77952695
H       4.28458199     -0.16063035      1.11118246
H       2.61875352      1.33862099      0.81160853
H       0.21980314     -0.85225993      2.05906972
H       0.06463595     -2.13369660     -0.21256229
H      -0.80955246     -0.75618456     -0.81960826
H      -2.86633239     -1.45681105     -0.91450773
H      -4.47052369      0.36958601     -0.98564828
H      -4.84233380      1.86324841      1.66347019
H      -3.82356113      2.42407538      0.34150068
H      -6.54399253      1.75443598     -0.07475074
H      -5.74727411     -0.47909614      1.68183761
H      -7.52019486     -0.84486182      0.18799840
H      -5.46679113     -2.08432419     -0.91514534
H      -6.09353675     -3.73601425      0.58489864
H      -4.00018763     -2.49420187      1.75779967
H      -2.79963554     -3.90871801      0.36040701
H      -1.28326131      1.06831153      1.40890555
H      -0.07668918      2.41629639      2.55483715
H       0.28207728      2.90867663      0.17509732
H      -0.77667611      2.39968890     -1.76412205
H       0.92580875      0.58760212     -1.64310376
H       2.72627850      1.99267842     -1.97339363
H       6.26955925      1.02767453      1.40662448
H       8.43722972      1.84503146      0.57430308
H       9.14903608      1.37124585     -1.75146035
H       7.67288996      0.06718223     -3.26069998
H       5.49630422     -0.76462854     -2.45636247
