38
Cc1nc(-c2ccc(OCC(C)C)c(C#N)c2)sc1C(=O)O
C       5.85637559     -0.95535942     -1.91734844
C       4.90909551     -0.26053131     -1.00367798
N       3.55280979     -0.48760194     -1.19674760
C       2.82607581      0.18412445     -0.32564962
C       1.34890475      0.13796519     -0.28872739
C       0.56926622      0.85109442      0.63352496
C      -0.83138580      0.76915631      0.62199503
C      -1.48994151     -0.03082392     -0.31390639
O      -2.84860638     -0.17011605     -0.40187581
C      -3.65928020      0.49795117      0.56598867
C      -5.13289113      0.16127530      0.29305852
C      -6.04332537      0.95498751      1.22773221
C      -5.39855875     -1.33887733      0.43890148
C      -0.72665263     -0.74943020     -1.24468181
C      -1.35249900     -1.58662043     -2.22931167
N      -1.82519353     -2.27319722     -3.03805477
C       0.67484771     -0.66211296     -1.22648163
S       3.74902776      1.12733555      0.77499522
C       5.20813469      0.60263769      0.03790397
C       6.46201442      1.08693870      0.55353743
O       6.65562106      1.85518262      1.48529635
O       7.52236236      0.59158417     -0.12235657
H       5.31567386     -1.57304089     -2.64195526
H       6.45442981     -0.23052364     -2.47806172
H       6.52569039     -1.61222106     -1.35342849
H       1.02830770      1.49005532      1.38511032
H      -1.37454987      1.34949486      1.36181335
H      -3.38663713      0.17112915      1.57733876
H      -3.51538077      1.58171397      0.47680915
H      -5.36685796      0.43650742     -0.74335926
H      -7.09692942      0.74222396      1.01810251
H      -5.88857376      2.03149671      1.09965189
H      -5.84976180      0.70699531      2.27692653
H      -4.79906856     -1.91822086     -0.27080357
H      -5.15886197     -1.68753550      1.44920360
H      -6.45201940     -1.56637174      0.24381323
H       1.25210669     -1.22962312     -1.95847230
H       8.28623083      1.00235784      0.33392895
