52
CC(C)C(C(=O)OC(C#N)c1cccc(Oc2ccccc2)c1)c1ccc(Cl)cc1
C      -4.04261755     -2.43476255      0.24093812
C      -4.10269417     -0.91869910      0.48699210
C      -5.10833107     -0.31026427     -0.49909834
C      -2.69536341     -0.27124478      0.35538779
C      -1.70911540     -0.88193482      1.35120506
O      -1.97591928     -1.21487059      2.49727811
O      -0.47556555     -0.99675847      0.78740720
C       0.53737875     -1.54306403      1.65598874
C       1.06346147     -0.52126597      2.58714731
N       1.48021120      0.27294095      3.32261182
C       1.63329077     -2.09908118      0.75893236
C       2.09730031     -3.41310748      0.93659169
C       3.09277471     -3.93508402      0.10791455
C       3.65112421     -3.14595607     -0.89651923
C       3.22015867     -1.83181404     -1.06794370
O       3.78211092     -1.12360078     -2.10427756
C       4.15942106      0.17615895     -1.85405460
C       3.83649589      1.12439623     -2.82463930
C       4.21813111      2.45455731     -2.65082038
C       4.93376807      2.83189939     -1.51473740
C       5.27521024      1.87889847     -0.55514102
C       4.89605545      0.54728920     -0.72707208
C       2.20290290     -1.31384820     -0.26088225
C      -2.70669135      1.24407839      0.50771393
C      -2.33069617      2.05770542     -0.57270150
C      -2.34589600      3.44888083     -0.45339137
C      -2.73222345      4.03658270      0.74759031
Cl     -2.75480482      5.75003826      0.89145362
C      -3.10235604      3.24527090      1.83130046
C      -3.09072650      1.85399736      1.71241189
H      -3.63217084     -2.65914270     -0.74982914
H      -3.42413646     -2.94213669      0.98865298
H      -5.04235025     -2.87653659      0.29738066
H      -4.48919609     -0.76053783      1.50226498
H      -6.07402232     -0.81855716     -0.42913039
H      -5.28759922      0.74906636     -0.28949340
H      -4.75475943     -0.40135345     -1.53163372
H      -2.32465448     -0.52315649     -0.64909795
H       0.10986894     -2.37847782      2.22558625
H       1.67754516     -4.05140318      1.71376556
H       3.42798032     -4.96154877      0.23796041
H       4.42149846     -3.55392281     -1.54579420
H       3.28653034      0.82755417     -3.71265285
H       3.96106844      3.19548161     -3.40246798
H       5.23199265      3.86788219     -1.37845904
H       5.84109917      2.17255592      0.32501047
H       5.18327580     -0.18998715      0.01632157
H       1.84620032     -0.30084630     -0.43202969
H      -2.02659882      1.61730658     -1.51968702
H      -2.05561862      4.06629966     -1.29953969
H      -3.39992162      3.70215006      2.77088282
H      -3.38282652      1.25197175      2.57322431
