40
Cc1cc(C(C)(C)C)c(O)c(C(C)(C)C)c1
C      -0.01634569      3.61002392     -1.16360706
C       0.00200933      2.19071516     -0.67344444
C      -1.19676963      1.50425175     -0.45502567
C      -1.22778757      0.16066965     -0.03503204
C      -2.59138944     -0.55674253      0.13876415
C      -3.75250459      0.15025331     -0.61528726
C      -2.97528902     -0.57012610      1.63265724
C      -2.57828495     -2.00281323     -0.41339702
C       0.03042146     -0.45122002      0.19626164
O       0.09006407     -1.72039474      0.70418633
C       1.27110802      0.18959102     -0.05483919
C       2.63309689     -0.51960983      0.15145031
C       2.83025898     -0.88788659      1.63888768
C       2.72444933     -1.79035516     -0.72406153
C       3.85547573      0.35290296     -0.24020546
C       1.21606674      1.52225935     -0.49683778
H      -0.03957117      3.62725695     -2.25754419
H       0.86916304      4.15459284     -0.81921818
H      -0.89263778      4.14442794     -0.78178234
H      -2.11608911      2.05576133     -0.63068434
H      -4.68232009     -0.42773321     -0.54557443
H      -3.52170604      0.27270084     -1.68002476
H      -3.97890109      1.13640316     -0.19444618
H      -2.25699795     -1.11858871      2.24824121
H      -3.95379025     -1.04112392      1.78335208
H      -3.03240152      0.44857736      2.03459036
H      -3.59152047     -2.42117793     -0.45386450
H      -2.00397604     -2.69582546      0.20607275
H      -2.16758668     -2.03373587     -1.42923037
H      -0.54278963     -1.76640295      1.43622851
H       2.10999092     -1.62961396      1.99465196
H       3.82591582     -1.31414657      1.81052146
H       2.73295034     -0.00282726      2.27877184
H       2.00972080     -2.56447946     -0.43215270
H       2.54109081     -1.55407931     -1.77895593
H       3.71915279     -2.24669769     -0.65388484
H       4.79543120     -0.19313204     -0.09273485
H       3.91834264      1.26075401      0.37119243
H       3.81985846      0.64797805     -1.29552846
H       2.12409133      2.07959295     -0.70846643
