17
N[C@@H](CCO)C(=O)O
N       0.44391079      1.43183302      1.09749693
C       0.64431616      0.08217292      0.51743911
C      -0.50431403     -0.28262727     -0.42365943
C      -1.85326246     -0.33279597      0.27919879
O      -2.83434608     -0.77992251     -0.65091908
C       1.97971949      0.03324313     -0.23398827
O       2.72686519      0.97761733     -0.44318166
O       2.31249705     -1.20468153     -0.64765493
H       1.26817518      1.65920313      1.65956467
H       0.47897833      2.11188049      0.33281424
H       0.70617878     -0.63088670      1.34745850
H      -0.55562217      0.42254592     -1.26452838
H      -0.31374541     -1.25858013     -0.88944931
H      -1.83167511     -1.03370058      1.11966070
H      -2.15292424      0.65455909      0.64332098
H      -3.68906901     -0.76490151     -0.18671443
H       3.17431753     -1.08495882     -1.09934201
