8
FC(F)(Cl)C(F)(F)Cl
F       1.19663309     -0.82659205      1.04451927
C       0.76478538     -0.10734112     -0.02953311
F       1.19355064     -0.79059684     -1.12956312
Cl      1.58456769      1.47938847     -0.01683084
C      -0.77199985      0.00301381     -0.03603769
F      -1.33364329     -1.23540894     -0.14379080
F      -1.20526610      0.70177301     -1.12296894
Cl     -1.42862756      0.77576366      1.43420523
