15
O=C(O)c1ccc(Cl)cc1
O       2.56612539     -1.61606427     -0.14066241
C       2.07888125     -0.51727498      0.04883722
O       2.84694724      0.55076586      0.32571360
C       0.63258370     -0.19062653      0.00803059
C      -0.27357929     -1.22273402     -0.27176741
C      -1.64549911     -0.95967067     -0.32009251
C      -2.11086154      0.33407796     -0.08888235
Cl     -3.79916851      0.65794907     -0.14832259
C      -1.21717890      1.36760409      0.19027563
C       0.15573706      1.10678358      0.23913592
H       3.75950948      0.19232473      0.32014760
H       0.08570053     -2.23437041     -0.45290396
H      -2.34166196     -1.76568713     -0.53774045
H      -1.58067178      2.37616254      0.37046530
H       0.84313641      1.92076018      0.45776583
