21
O=C1OC(=O)C2CCCCC12
O       3.22429755      0.31158070     -0.52392512
C       2.28954341     -0.30536923     -0.03829438
O       2.25362718     -1.64969028      0.09158314
C       1.06759219     -2.04866680      0.60039641
O       0.77917518     -3.21081205      0.83874488
C       0.15131507     -0.88124026      0.79643789
C      -1.04501363     -0.97111471     -0.14545365
C      -1.86994289      0.31396212     -0.14559663
C      -1.02489643      1.58863002     -0.09848219
C       0.44025797      1.33668193     -0.43260279
C       1.04756936      0.31373517      0.52525476
H      -0.18075807     -0.86342987      1.84112011
H      -1.68381109     -1.81950935      0.12899477
H      -0.70133593     -1.17872729     -1.16807070
H      -2.55438824      0.31261273      0.71168273
H      -2.50507220      0.32505025     -1.03964131
H      -1.44387403      2.33509063     -0.78303917
H      -1.09079380      2.02349895      0.90708147
H       1.00225539      2.27647827     -0.37059899
H       0.52889892      0.99950769     -1.47367152
H       1.31535411      0.79173139      1.47576928
