20
ClC1=C(Cl)C(Cl)(C2(Cl)C(Cl)=C(Cl)C(Cl)=C2Cl)C(Cl)=C1Cl
Cl      3.83381300     -1.91473484     -0.82695956
C       2.56610263     -0.83691782     -0.46976930
C       1.78641128     -0.85608768      0.62058984
Cl      1.93592317     -1.94463864      1.92571255
C       0.76519786      0.28711101      0.58274281
Cl      1.21794428      1.40457894      1.94280015
C      -0.77203211     -0.14028317      0.61404333
Cl     -1.23661443     -1.00349271      2.14456751
C      -1.19628867     -1.03001276     -0.55970055
Cl     -0.50904140     -2.55795664     -0.87680314
C      -2.19131218     -0.46242045     -1.25503770
Cl     -2.95765886     -1.10704110     -2.63095732
C      -2.56352154      0.78145997     -0.63312701
Cl     -3.82752297      1.77945953     -1.18327282
C      -1.79270388      0.99123717      0.44344142
Cl     -1.95203989      2.29080155      1.53723667
C       1.19961540      0.95858152     -0.72480997
Cl      0.51606258      2.40721713     -1.30934854
C       2.19985126      0.27903081     -1.30227659
Cl      2.97781447      0.67410818     -2.76332610
