35
C[C@@H](CN1CC(=O)NC(=O)C1)N1CC(=O)NC(=O)C1
C       0.41995573      1.88648053      0.01087137
C       0.48797332      0.37830615      0.29591133
C      -0.54178575     -0.40539030     -0.58370878
N      -1.95135452      0.01881220     -0.43764073
C      -2.49946893     -0.35078037      0.88537204
C      -3.96674125      0.05973427      1.01105971
O      -4.52900471      0.16156600      2.10011637
N      -4.66368735      0.22971771     -0.15608060
C      -4.23519796     -0.18782154     -1.38880274
O      -5.02281656     -0.29047269     -2.32750658
C      -2.77160577     -0.60890422     -1.49875374
N       1.84026307     -0.21946770      0.16347798
C       2.52862087      0.09594596     -1.10381524
C       3.85396070     -0.66062684     -1.20339103
O       4.42036856     -0.85762299     -2.27691784
N       4.43666310     -1.03968259     -0.02172850
C       4.04668923     -0.61052354      1.22063968
O       4.78098968     -0.75674823      2.19609563
C       2.71322679      0.13219392      1.30360457
H      -0.56338085      2.28703967      0.28006745
H       0.58607362      2.10794407     -1.04853440
H       1.15768398      2.44228183      0.59754737
H       0.18390239      0.22963031      1.33918286
H      -0.25742179     -0.26498033     -1.63417583
H      -0.45226999     -1.48082117     -0.37634733
H      -1.96476394      0.18307310      1.67708436
H      -2.43035338     -1.42969584      1.06747668
H      -5.64624772      0.44123520     -0.06858397
H      -2.41703726     -0.27473528     -2.48061226
H      -2.72590175     -1.70358352     -1.45339759
H       1.92355216     -0.22396712     -1.95756683
H       2.75148870      1.16446763     -1.20015011
H       5.34168980     -1.48101963     -0.08453552
H       2.23816161     -0.17707482      2.24160500
H       2.92777614      1.20549016      1.34597474
