10
CCN
C      -1.11895262     -0.25091292      0.05982502
C       0.18089802      0.48939798     -0.20185753
N       1.28548785     -0.16266453      0.48893512
H      -1.06871201     -1.28274997     -0.30407257
H      -1.94702482      0.24748319     -0.45431608
H      -1.35239125     -0.27571792      1.12964961
H       0.38351148      0.51604319     -1.27761079
H       0.09426631      1.52286877      0.14855924
H       1.38657529     -1.11866819      0.15029903
H       2.15634174      0.31492039      0.26058896
