13
C=CC(=C)C
C       1.97617861     -0.27251428     -0.25190409
C       0.98929999      0.60210849     -0.01866465
C      -0.42737311      0.29042375      0.08815309
C      -1.31165785      1.27340559      0.32613601
C      -0.88779766     -1.13390335     -0.06960177
H       1.80376197     -1.33417791     -0.38783846
H       3.00507653      0.06901385     -0.31272957
H       1.26659316      1.64900496      0.10385517
H      -2.37475912      1.06933272      0.41063534
H      -1.00745648      2.30895997      0.44411394
H      -0.62270923     -1.52012598     -1.05972131
H      -1.97479802     -1.22629474      0.03371163
H      -0.43435879     -1.77523306      0.69385467
