54
CC(C)N(CCC(C(N)=O)(c1ccccc1)c1ccccn1)C(C)C
C      -2.80659360      1.66264387      1.89696562
C      -3.23153352      1.00742706      0.57290163
C      -3.38365993      2.09080634     -0.50904705
N      -2.29374152     -0.09931617      0.26935876
C      -1.07263204      0.34140132     -0.43380622
C       0.09172369     -0.66343980     -0.28203416
C       1.51362175     -0.06380583     -0.58733411
C       1.36936855      0.50118852     -2.04801749
N       1.47336069     -0.37618751     -3.09240866
O       1.03416178      1.65840002     -2.30528004
C       1.96792894      1.05407768      0.39415400
C       2.98249711      1.95627958      0.00837775
C       3.44069625      2.95148559      0.87560468
C       2.91926336      3.04823813      2.16246403
C       1.94444911      2.14698667      2.57981636
C       1.47254464      1.16216636      1.70590439
C       2.55650672     -1.22325399     -0.48780337
C       2.66937457     -1.96848103      0.69672558
C       3.61433448     -2.98944644      0.78074035
C       4.44338459     -3.24479339     -0.30528397
C       4.29043512     -2.46560144     -1.43794882
N       3.37103174     -1.47686654     -1.55566258
C      -2.91609049     -1.31505771     -0.30106057
C      -3.79437470     -1.09044306     -1.53738406
C      -3.70273786     -2.07096244      0.78320731
H      -1.85777330      2.20352064      1.81130829
H      -3.57121608      2.37691441      2.23414112
H      -2.69565709      0.90886109      2.68764704
H      -4.23319051      0.60077906      0.75795743
H      -3.60836220      1.65571347     -1.48509969
H      -4.21032127      2.75830204     -0.25093164
H      -2.48289621      2.70915390     -0.60868581
H      -1.28837049      0.51143477     -1.49608269
H      -0.74792840      1.30062770     -0.01901217
H       0.05587427     -1.09988978      0.72386124
H      -0.08207797     -1.50482794     -0.96725435
H       1.49586285      0.06846947     -4.00225822
H       2.15876404     -1.12476898     -2.95412804
H       3.41899819      1.90585218     -0.98652832
H       4.20111754      3.65162785      0.54254096
H       3.27485884      3.82138343      2.83830926
H       1.54099592      2.21282864      3.58539808
H       0.71332482      0.48160828      2.08390246
H       2.04247689     -1.76038963      1.56347133
H       3.70359854     -3.57385374      1.69448018
H       5.19424364     -4.02717385     -0.26799885
H       4.92097176     -2.62142494     -2.31387361
H      -2.12644467     -2.01182117     -0.60347193
H      -4.69673051     -0.51617552     -1.30327547
H      -3.24497505     -0.57065472     -2.32770568
H      -4.12102178     -2.05277524     -1.94940955
H      -4.07691287     -3.02316097      0.38272719
H      -3.06263474     -2.30318309      1.64320989
H      -4.56789361     -1.51042314      1.14361217
