6
O=C([O-])O.[Na+]
O      -1.38447591     -0.80338832     -0.05388810
C      -0.38309493     -0.05327172     -0.05092023
O      -0.25970927      1.17172598     -0.29182860
O       0.79013729     -0.58941074      0.25399376
Na      0.00000000      0.00000000      0.00000000
H       1.23714282      0.27434480      0.14264317
