11
O=P([O-])([O-])OP(=O)([O-])[O-].[Ca+2].[Ca+2]
O       1.61556599      1.65893557     -0.43604616
P       1.54194740      0.15809483     -0.12760930
O       2.07423683     -0.18554091      1.27274910
O       2.34199075     -0.63716347     -1.18675548
O       0.01871070     -0.38198532     -0.26940914
P      -1.54146283     -0.16800724      0.12061779
O      -2.23820712     -1.48158485     -0.30758403
O      -1.69866763      0.03760278      1.63260236
O      -2.11411410      0.99964860     -0.69856514
Ca      0.00000000      0.00000000      0.00000000
Ca      0.00000000      0.00000000      0.00000000
