15
O=S(=O)(Cl)c1ccccc1
O       2.74976653     -1.26693544     -0.98646694
S       2.38326520     -0.20413497     -0.07381330
O       2.98037535      1.11404729     -0.12537881
Cl      2.75639667     -0.91916607      1.80338362
C       0.62109175     -0.04310975     -0.04713095
C      -0.17691334     -1.11172159     -0.46827593
C      -1.56481338     -0.97382411     -0.46323138
C      -2.14669031      0.22571167     -0.04920636
C      -1.34515499      1.29411201      0.35692779
C       0.04364476      1.16550743      0.35524441
H       0.26819416     -2.04726980     -0.80133512
H      -2.19530305     -1.79917658     -0.78649549
H      -3.22951160      0.33053288     -0.04905650
H      -1.80518377      2.22872713      0.67012423
H       0.66083603      2.00669989      0.66471071
