26
C[C@]12C(=O)OC(=O)[C@@]1(C)[C@@H]1CC[C@H]2O1
C       0.12663496     -1.62494667      1.25291046
C       0.00919654     -0.95487178     -0.11064728
C       0.50513396     -1.90783560     -1.16278531
O       0.09929000     -3.05009780     -1.31807814
O       1.48620809     -1.34910918     -1.90378329
C       1.70992760     -0.07306070     -1.52245739
O       2.53578763      0.66043431     -2.04545630
C       0.83771967      0.30688225     -0.35798959
C       1.72391172      0.80753813      0.77606911
C      -0.22399399      1.30194112     -0.85033289
C      -1.17636756      1.75189241      0.25866551
C      -2.00631027      0.48797640      0.50643176
C      -1.40496982     -0.49656144     -0.49777149
O      -1.11017440      0.41791412     -1.58687133
H       1.13491887     -2.02397706      1.41359723
H      -0.56802788     -2.46926624      1.33172419
H      -0.09362588     -0.94114800      2.07733413
H       1.16625748      0.97752260      1.70121613
H       2.20519217      1.75405567      0.50382402
H       2.52527163      0.09338438      0.99852972
H       0.14577373      2.11030766     -1.48664342
H      -1.83637646      2.54643784     -0.10921832
H      -0.67609742      2.12471670      1.15499041
H      -1.97574683      0.14548611      1.54298024
H      -3.05350352      0.69288071      0.25413609
H      -2.08602999     -1.28849593     -0.82037426
