33
CCO[Si](OCC)(OCC)OCC
C      -3.28549360     -2.09575797     -0.66140475
C      -2.48361013     -0.83705147     -0.38114420
O      -1.10657058     -1.18934267     -0.33986372
Si      0.00000013     -0.00000053     -0.00000063
O       1.53580955     -0.60464294     -0.17389233
C       1.87869180     -1.23035644     -1.40391890
C       3.33573230     -1.65164583     -1.33007067
O      -0.21724631      0.52317614      1.56000935
C       0.05483722     -0.38514633      2.61971299
C      -0.26274673      0.31022536      3.93177375
O      -0.21199161      1.27080740     -1.04625511
C       0.55007933      2.45255278     -0.83464956
C       0.21250912      3.43717996     -1.94029901
H      -2.97889583     -2.54455275     -1.61206499
H      -4.35568806     -1.87476896     -0.70402605
H      -3.11001277     -2.84571230      0.11703972
H      -2.67086724     -0.10705286     -1.17843267
H      -2.80504663     -0.41327989      0.57861913
H       1.74841551     -0.53520682     -2.24287321
H       1.25625785     -2.11816218     -1.57127677
H       3.64744494     -2.14116604     -2.25698706
H       3.97950598     -0.78325551     -1.15498793
H       3.49579116     -2.34137573     -0.49470968
H      -0.56801158     -1.28409644      2.53028515
H       1.11233295     -0.67722773      2.61491282
H      -1.31269917      0.62013138      3.95932001
H       0.34086891      1.21705427      4.04350092
H      -0.06732288     -0.35096301      4.78066043
H       1.62463878      2.23258298     -0.86602867
H       0.30227343      2.90243848      0.13479721
H       0.77556555      4.36689992     -1.81964520
H      -0.85776104      3.66887526     -1.93672882
H       0.44320968      3.00884050     -2.92137155
