13
Nc1cccnc1
N       2.13339905      0.47945679     -0.20282363
C       0.79538631      0.07792096     -0.11917077
C      -0.22724725      1.02394885     -0.08551241
C      -1.54630058      0.62242017      0.12187087
C      -1.79946595     -0.72267928      0.33149870
N      -0.83772333     -1.66741831      0.36336234
C       0.43268647     -1.23881831      0.16382868
H       2.76457975     -0.24966407     -0.52201959
H       2.27058215      1.35261282     -0.70263811
H      -0.00680052      2.07899185     -0.21862167
H      -2.35408792      1.34512604      0.13269572
H      -2.81028878     -1.08366424      0.49748798
H       1.18528061     -2.01823326      0.24004191
