20
COc1cc(Cl)c(OC)cc1Cl
C       3.61594362      0.47822170      0.72091679
O       2.49540416      1.21990451      0.25639540
C       1.28840921      0.57613762      0.18190090
C       1.07977756     -0.75942905      0.53042725
C      -0.19602219     -1.32778505      0.41859278
Cl     -0.37643491     -2.98965850      0.86962862
C      -1.28840951     -0.57613730     -0.04270169
O      -2.49540456     -1.21990408     -0.11719556
C      -3.61594267     -0.47822211     -0.58172098
C      -1.07977810      0.75942951     -0.39122819
C       0.19602175      1.32778529     -0.27939320
Cl      0.37643458      2.98965868     -0.73042827
H       3.46461214      0.13875252      1.75081386
H       3.83640388     -0.36201347      0.05441052
H       4.48378722      1.14467916      0.71438433
H       1.88956110     -1.38426477      0.89235015
H      -3.46461104     -0.13875576     -1.61161862
H      -4.48378626     -1.14467892     -0.57518741
H      -3.83640420      0.36201436      0.08478266
H      -1.88956178      1.38426567     -0.75315063
