68
O=c1c2ccccc2c(=O)c2c1ccc1c2[nH]c2c3c(=O)c4ccccc4c(=O)c3c3[nH]c4c(ccc5c(=O)c6ccccc6c(=O)c54)c3c12
O       5.14393864     -4.69664464      0.66955110
C       5.22095307     -3.48596653      0.49496086
C       6.53847381     -2.83464129      0.34729727
C       7.70434598     -3.60941799      0.40232553
C       8.95397696     -3.00235410      0.26568909
C       9.04333370     -1.62380814      0.07465357
C       7.88326854     -0.84942518      0.01965812
C       6.62830600     -1.45670636      0.15609362
C       5.40686341     -0.63034218      0.09624208
O       5.48196210      0.58292576     -0.06265731
C       4.09220710     -1.28421907      0.22960570
C       3.99673842     -2.66062342      0.42923506
C       2.75121051     -3.26488802      0.59915223
C       1.57379230     -2.50541794      0.54122085
C       1.62794996     -1.12066542      0.27641469
C       2.90001983     -0.53668855      0.17650096
N       2.72429100      0.82883915      0.06087672
C       1.39035472      1.15850170      0.11838700
C       0.75271965      2.40531184      0.16049383
C       1.52778784      3.65890095      0.16384520
O       2.75126167      3.62966829      0.09363547
C       0.80925949      4.94611696      0.25478079
C       1.53456174      6.14443641      0.26035553
C       0.86441965      7.36585501      0.34801195
C      -0.52755020      7.39444963      0.43026389
C      -1.25279015      6.20170728      0.42490378
C      -0.58283686      4.97471574      0.33704312
C      -1.35940552      3.71838772      0.32999410
O      -2.58306173      3.73960375      0.39991967
C      -0.64224869      2.43425402      0.23557090
C      -1.33609558      1.21824963      0.18269451
N      -2.68377007      0.94626956      0.21679865
C      -2.92130807     -0.39686420     -0.00338914
C      -1.67697119     -1.02880896     -0.14985334
C      -1.68544760     -2.39012261     -0.52046374
C      -2.89613652     -3.08839759     -0.63494826
C      -4.11317816     -2.44280790     -0.41729068
C      -5.37360557     -3.20391984     -0.54467836
O      -5.35149277     -4.39984985     -0.81191205
C      -6.66038151     -2.50641231     -0.34575075
C      -7.86025113     -3.22060576     -0.45890035
C      -9.08120415     -2.56941984     -0.27450535
C      -9.10802771     -1.20701846      0.02216171
C      -7.91397466     -0.49295138      0.13524438
C      -6.68770748     -1.14461356     -0.04896599
C      -5.42998462     -0.38194296      0.07284161
O      -5.45003108      0.81765361      0.32480505
C      -4.14621954     -1.08292798     -0.11219268
C      -0.71713246     -0.01409369      0.07378040
C       0.71570843     -0.04908840      0.13331611
H       7.64316901     -4.68616396      0.55177640
H       9.85807014     -3.60589560      0.30874192
H      10.01720164     -1.15073430     -0.03155226
H       7.96130320      0.22625670     -0.12962077
H       2.68281431     -4.33406168      0.79692042
H       0.63399843     -3.00100529      0.75624308
H       3.48552986      1.50346213      0.01110171
H       2.62142200      6.13068145      0.19685771
H       1.42930178      8.29560225      0.35222476
H      -1.04948809      8.34652952      0.49854088
H      -2.33925798      6.23264029      0.48906094
H      -3.41358128      1.64905464      0.31948920
H      -0.76878951     -2.91005964     -0.77431287
H      -2.87613525     -4.14119483     -0.91448043
H      -7.84791532     -4.28432773     -0.69086625
H     -10.01178002     -3.12595132     -0.36283015
H     -10.05954096     -0.69952396      0.16558583
H      -7.94321348      0.57049845      0.36693683
