12
COS(C)(=O)=O
C      -1.96968552      0.31073933      0.43954006
O      -0.61311416      0.60186143      0.16144268
S       0.43507254     -0.64378081      0.21012621
C       1.89710257      0.27769241     -0.19851284
O       0.13212368     -1.54472640     -0.88141965
O       0.54176742     -1.10388597      1.57829048
H      -2.36562578     -0.40254198     -0.28917277
H      -2.54537691      1.23737119      0.36934224
H      -2.07571878     -0.09055737      1.45160684
H       2.05671878      1.04302487      0.56327084
H       2.74088775     -0.41520545     -0.21485675
H       1.76584841      0.73000875     -1.18324998
