26
COP(=S)(OC)SCC(=O)N(C)C=O
C       2.60359076     -1.42972044     -0.54613792
O       1.78996347     -0.27533018     -0.44999924
P       1.85921347      0.62145307      0.90177049
S       3.61024975      1.42165717      1.20687400
O       0.72332997      1.72737406      0.51827021
C       0.93513721      2.57599034     -0.59536862
S       0.97846468     -0.48729479      2.46598594
C      -0.77944413     -0.49762502      2.01497454
C      -0.98653479     -1.11519884      0.63608154
O      -0.40958024     -2.15744672      0.31406389
N      -1.87343082     -0.46851007     -0.22580557
C      -1.84897113     -0.87831432     -1.61767858
C      -2.99977739      0.23315227      0.18482437
O      -3.91984548      0.60070726     -0.53674835
H       3.62060600     -1.14276125     -0.82468397
H       2.62002548     -1.98487359      0.39472136
H       2.19706191     -2.07648159     -1.32787318
H       1.35931205      2.02719742     -1.44010139
H      -0.02916584      2.99119894     -0.90015140
H       1.59537706      3.40047325     -0.31487610
H      -1.34690449     -1.07872297      2.74727518
H      -1.11515780      0.54004403      2.05070109
H      -0.82889668     -1.12197846     -1.93017148
H      -2.23516435     -0.08074968     -2.25963720
H      -2.48047560     -1.76520088     -1.73312188
H      -3.03898310      0.42096098      1.26681228
