29
CCC1(c2ccccc2)C(=O)NC(=O)NC1=O
C      -1.76381974      2.63772774      0.07548372
C      -0.42266623      1.90496203      0.07724467
C      -0.51566860      0.35498970      0.00272572
C       0.94334294     -0.18338822      0.01667109
C       1.67189568     -0.34785587     -1.17765105
C       2.98857059     -0.81602955     -1.16254992
C       3.61209229     -1.11232909      0.04477428
C       2.92441922     -0.92766306      1.23943258
C       1.60765415     -0.45964626      1.22771056
C      -1.29696513     -0.19487484      1.20571429
O      -1.39707933      0.38033355      2.28880401
N      -1.86327091     -1.43032719      1.04335795
C      -2.29777573     -1.91005983     -0.15013895
O      -3.17003473     -2.77015453     -0.21340802
N      -1.80150861     -1.32285040     -1.26919090
C      -1.23041895     -0.07907390     -1.28594705
O      -1.27412700      0.59429023     -2.31484999
H      -1.59279198      3.71810728      0.13026017
H      -2.33531624      2.44236851     -0.83580436
H      -2.38255139      2.36016590      0.93300918
H       0.16752248      2.28514586     -0.76768590
H       0.12074266      2.20373598      0.98400321
H       1.23774268     -0.10088843     -2.14539102
H       3.53044283     -0.93893367     -2.09730661
H       4.63767312     -1.47181240      0.05545796
H       3.41603757     -1.13801704      2.18630300
H       1.12196353     -0.30236227      2.18967150
H      -2.37107409     -1.78004659      1.84492178
H      -2.26503107     -1.59551362     -2.12562187
