18
CC(=O)Oc1ccccc1
C       3.39696807     -0.49863067     -0.04583801
C       2.05162101      0.14809065     -0.19454421
O       1.87844728      1.28523252     -0.61078371
O       1.07777289     -0.75462499      0.21877180
C      -0.23933504     -0.29190340      0.12682063
C      -0.82790521     -0.04350946     -1.11260258
C      -2.16083502      0.36320502     -1.16413172
C      -2.89582281      0.50189947      0.01546690
C      -2.30184520      0.23038846      1.25001332
C      -0.96910873     -0.17557648      1.30830301
H       4.17238893      0.19924119     -0.37458890
H       3.57450279     -0.74781976      1.00330484
H       3.44860951     -1.39456243     -0.66955661
H      -0.25801655     -0.15446458     -2.02981388
H      -2.62737895      0.57326537     -2.12302894
H      -3.93433539      0.82073311     -0.02804413
H      -2.87922110      0.33442273      2.16488235
H      -0.50650648     -0.39538675      2.26536985
