11
ClCC(Cl)CCl
Cl      1.60054909     -0.93261191     -1.46292337
C       1.16038677     -0.56134779      0.22479674
C       0.07122418      0.50785844      0.35841771
Cl      0.68724071      2.10248733     -0.20494040
C      -1.23770753      0.19585090     -0.36581443
Cl     -2.00640928     -1.28377283      0.26824054
H       0.84628468     -1.50168539      0.68728829
H       2.07634648     -0.24326061      0.73407305
H      -0.13780912      0.64704653      1.42533230
H      -1.09993302      0.06341626     -1.44298901
H      -1.96017296      1.00601907     -0.22148141
