36
CN(C)C(=O)NC1CCCCCCC1
C       3.58993178     -0.19420027     -1.42959026
N       3.41719511      0.23343013     -0.04773065
C       4.64483596      0.53948728      0.66679548
C       2.30993079     -0.09526048      0.72564298
O       2.34295785     -0.15510443      1.95146836
N       1.16780520     -0.34503340      0.00651262
C      -0.09681772     -0.66440240      0.66818190
C      -0.96376052     -1.49654768     -0.28912818
C      -2.40109509     -1.74085557      0.17245930
C      -3.44852061     -0.87777268     -0.53423987
C      -3.43813797      0.61843650     -0.21445134
C      -2.21918121      1.37477251     -0.74319863
C      -1.15583816      1.70091468      0.30448180
C      -0.75082491      0.58943623      1.27221479
H       4.16255637      0.56666926     -1.96802412
H       4.14378556     -1.13831601     -1.43230517
H       2.64484091     -0.35300322     -1.95088768
H       5.26254770      1.20677060      0.05871507
H       5.18449549     -0.39274583      0.85944761
H       4.43365828      1.03276801      1.62025344
H       1.08973626      0.21231566     -0.82954769
H       0.14997815     -1.31748885      1.51696954
H      -0.47332499     -2.47637120     -0.38490476
H      -0.94273613     -1.08892260     -1.30566536
H      -2.64720844     -2.78461139     -0.06558481
H      -2.49860833     -1.65907434      1.26023367
H      -3.36654826     -1.01940479     -1.61938573
H      -4.43693127     -1.26641514     -0.25603471
H      -4.32488204      1.04642737     -0.70131379
H      -3.58325948      0.78575175      0.85841467
H      -1.77317423      0.86067672     -1.59989639
H      -2.56683573      2.33617195     -1.14551837
H      -1.53249613      2.53527865      0.91161566
H      -0.26687628      2.08993309     -0.20672350
H      -0.04540437      1.03550259      1.98633921
H      -1.61179355      0.30078730      1.88438489
