28
CS(=O)(=O)OCCCCOS(C)(=O)=O
C       4.82302708     -1.08546381     -0.84147917
S       3.80480202      0.00712065     -1.80137377
O       3.44706424     -0.65686264     -3.03665993
O       4.39171197      1.32982672     -1.78118876
O       2.50838601     -0.00152641     -0.81553888
C       1.42274510      0.84348801     -1.16785020
C       0.29612094      0.61774637     -0.16718069
C      -0.90908308      1.51041424     -0.46371968
C      -2.03314370      1.30727177      0.54652352
O      -2.52649481     -0.01985905      0.43966367
S      -3.64264579     -0.48461217      1.53120510
C      -3.94118749     -2.10627428      0.87166573
O      -4.83113249      0.32032742      1.34661630
O      -2.99598257     -0.61578497      2.81931564
H       4.98045704     -0.64873796      0.14629955
H       5.77950353     -1.19711713     -1.35671095
H       4.32529140     -2.05400413     -0.76370096
H       1.75194900      1.88808144     -1.14054503
H       1.08285180      0.60433204     -2.18178650
H       0.00691675     -0.44045556     -0.18574878
H       0.66792716      0.80910058      0.84734926
H      -1.28037363      1.28338812     -1.47029653
H      -0.60132395      2.56242671     -0.45110852
H      -2.84624662      2.00974689      0.33432771
H      -1.66762128      1.49230774      1.56308962
H      -4.68583643     -2.59550225      1.50225684
H      -3.00777066     -2.67167255      0.88886722
H      -4.31991152     -2.00770578     -0.14714887
