39
CCOC(=O)COc1cc(-c2nn(C)c(OC(F)F)c2Cl)c(F)cc1Cl
C       6.71149669      0.89492443      1.24812718
C       6.12997765     -0.39916088      0.71006976
O       4.70443763     -0.28496896      0.58223443
C       4.25488786      0.24186949     -0.59754119
O       4.97281449      0.61181670     -1.51557798
C       2.73339037      0.28839431     -0.57077606
O       2.21841830      0.82697427     -1.78213752
C       0.86203419      0.98736784     -1.88882260
C      -0.06422989      0.56507676     -0.92696151
C      -1.44325570      0.76363351     -1.11946046
C      -2.38679556      0.31776560     -0.09884590
N      -2.16522385      0.61723960      1.19106829
N      -3.22279848      0.09806518      1.83769974
C      -3.33950812      0.28132315      3.26665128
C      -4.09438066     -0.59761288      1.03589653
O      -5.15406966     -1.19109298      1.59956659
C      -6.19318967     -1.64391087      0.74564894
F      -6.71415494     -0.58543157      0.08076487
F      -7.18064844     -2.12132597      1.54596236
C      -3.56314352     -0.48056416     -0.23776184
Cl     -4.11168699     -1.18054523     -1.68966048
C      -1.87845662      1.41044765     -2.27772354
F      -3.18070640      1.66294670     -2.47393197
C      -0.97530686      1.83098506     -3.24652756
C       0.38918034      1.61585736     -3.05408057
Cl      1.47161894      2.15845641     -4.28845329
H       6.23277106      1.16823232      2.19378378
H       6.53775284      1.72238304      0.55262290
H       7.78823595      0.79808395      1.41213639
H       6.32238106     -1.21267326      1.41783598
H       6.59457499     -0.68404485     -0.24127303
H       2.44175379      0.92146724      0.27541365
H       2.37853313     -0.74092380     -0.44390354
H       0.25327233      0.07535366     -0.01038764
H      -2.65117008      1.06697858      3.58953451
H      -4.36589683      0.57500094      3.50084989
H      -3.08698465     -0.66444108      3.75253660
H      -5.88146551     -2.43913158      0.06294591
H      -1.34445919      2.32885081     -4.13752290
