36
O=C([O-])CN(CCN(CC(=O)[O-])CC(=O)O)CC(=O)O.[Na+].[Na+]
O      -3.38346056     -1.84631110     -3.08476642
C      -3.31074576     -1.03573825     -2.11515223
O      -4.25229941     -0.57429233     -1.39588327
C      -1.86277846     -0.55548379     -1.76763449
N      -1.82692542      0.40552592     -0.63605970
C      -0.60141582      1.21819963     -0.58522471
C       0.78165240      0.53064218     -0.78079465
N       1.29514036     -0.28558104      0.34019590
C       1.69183049      0.57649802      1.49624944
C       2.46264174     -0.18921156      2.61599835
O       1.84045712     -0.44660845      3.67885794
O       3.68045333     -0.43914774      2.32046972
C       2.35661524     -1.20799252     -0.13069585
C       3.57460651     -0.54154440     -0.77419940
O       3.68232863     -0.34775825     -1.98255935
O       4.55932621     -0.18253904      0.07967444
C      -2.14736606     -0.22655560      0.65778406
C      -3.21901714      0.59854604      1.37713959
O      -3.10348158      1.04969062      2.51268489
O      -4.35711598      0.77786295      0.66025549
Na      0.00000000      0.00000000      0.00000000
Na      0.00000000      0.00000000      0.00000000
H      -1.23331998     -1.43011912     -1.56587486
H      -1.49193125     -0.06333090     -2.67553731
H      -0.69292168      1.94767089     -1.40181752
H      -0.59672253      1.83625157      0.32121522
H       0.72367636     -0.08416268     -1.68746550
H       1.50848841      1.32014345     -1.01866624
H       2.33366503      1.40154666      1.16188609
H       0.79605021      1.01868705      1.94578960
H       1.92701665     -1.87155199     -0.89428340
H       2.67601335     -1.90995683      0.64636974
H       4.29634596     -0.34690314      1.04135988
H      -1.27491494     -0.30757927      1.31329025
H      -2.54528265     -1.24318764      0.55460782
H      -4.28660878      0.29479495     -0.22721350
