61
CC(C)COCC(CN(Cc1ccccc1)c1ccccc1)N1CCCC1
C       5.15687323     -0.99749367      1.64030879
C       4.68237220      0.45044506      1.80914979
C       5.30214017      1.33515676      0.72130338
C       3.14738477      0.54367726      1.81141103
O       2.61729219      0.00576062      0.60288727
C       1.30085793      0.48698665      0.32659339
C       0.57632943     -0.36329311     -0.75575128
C      -0.90788741      0.12732717     -0.86122370
N      -1.64437966      0.12501521      0.42314194
C      -1.92926155      1.45548518      0.99127531
C      -3.28929302      2.03254933      0.63891234
C      -3.69057839      3.22543356      1.26851406
C      -4.92578080      3.82239897      0.97652009
C      -5.77521202      3.23697281      0.04365946
C      -5.39064355      2.05937451     -0.59814949
C      -4.15573582      1.46303898     -0.30641605
C      -2.18455346     -1.03845928      0.96243457
C      -2.93606259     -1.03349287      2.15043774
C      -3.49377820     -2.19668026      2.69178577
C      -3.31132720     -3.41737765      2.05824891
C      -2.57453626     -3.46777733      0.88728773
C      -2.02397716     -2.29642278      0.35423882
N       1.22522078     -0.30921349     -2.10626956
C       0.57054341     -1.18905935     -3.08802060
C       1.60841433     -1.42108409     -4.17947175
C       2.93126376     -0.97205619     -3.57698482
C       2.62813209     -0.74272624     -2.10562314
H       4.75422898     -1.63354783      2.43748407
H       6.24847661     -1.04969120      1.68943782
H       4.84840235     -1.41860308      0.68061822
H       5.03878046      0.80755507      2.78314180
H       5.00913089      1.00486170     -0.27763330
H       6.40278772      1.30200140      0.77417742
H       4.99249722      2.38474802      0.84084482
H       2.74442981     -0.04388693      2.64961709
H       2.82930517      1.59343696      1.94706929
H       1.36796453      1.53096154      0.00785801
H       0.73348032      0.44674797      1.26012676
H       0.59944447     -1.40295216     -0.40694644
H      -0.90172764      1.14293058     -1.28289086
H      -1.47345436     -0.46204575     -1.59180718
H      -1.17364238      2.16951163      0.63427839
H      -1.80195786      1.43946953      2.07942849
H      -3.03913321      3.70118148      1.99970142
H      -5.22454605      4.74560874      1.46568587
H      -6.73480891      3.70122464     -0.17977075
H      -6.05118576      1.60087521     -1.32744529
H      -3.88493040      0.54245245     -0.81736974
H      -3.12405366     -0.11149241      2.69055424
H      -4.07443309     -2.13816209      3.60584458
H      -3.74054852     -4.32135691      2.47388548
H      -2.42142834     -4.41576417      0.37824149
H      -1.47052177     -2.40598379     -0.56896637
H       0.29101046     -2.15457284     -2.64443716
H      -0.33105922     -0.73460625     -3.51135792
H       1.64613892     -2.48276901     -4.45177571
H       1.37640431     -0.84663747     -5.08328529
H       3.72077575     -1.72053559     -3.71714334
H       3.26124876     -0.03870325     -4.05292630
H       3.30241016      0.02156330     -1.71768367
H       2.76669709     -1.67830526     -1.54675595
