29
CC(C)=CCC/C(C)=C\CO
C       2.29897054      1.01816758      1.25226771
C       2.04069805     -0.42380456      1.59315396
C       2.80749093     -0.92398284      2.78989292
C       1.19830315     -1.23813407      0.92773276
C       0.38740413     -0.91403828     -0.29775154
C      -1.07987484     -0.65110383      0.05515961
C      -1.90165663     -0.28805395     -1.16413153
C      -2.46118297     -1.45934009     -1.93008807
C      -2.15308844      0.97491651     -1.56372729
C      -1.67146531      2.24746661     -0.94435226
O      -0.92086425      2.95352578     -1.92098882
H       2.14161737      1.64679671      2.13541956
H       3.33360160      1.14639026      0.91827133
H       1.64137607      1.40353616      0.46968521
H       2.54340105     -0.34329829      3.67982373
H       3.88430578     -0.82656160      2.61678759
H       2.59984343     -1.97712844      3.00650225
H       1.07876026     -2.26251085      1.28128838
H       0.46146059     -1.76591138     -0.98565958
H       0.80836075     -0.06149465     -0.84098735
H      -1.14746722      0.13779978      0.81348101
H      -1.51640296     -1.53864690      0.53247349
H      -3.11038096     -2.05982053     -1.28445808
H      -3.05460062     -1.14414124     -2.79488453
H      -1.65130203     -2.09626136     -2.29974151
H      -2.77203768      1.12973309     -2.44727328
H      -2.52350585      2.86712576     -0.65004221
H      -1.03595839      2.10287347     -0.06848234
H      -0.22580556      2.34590115     -2.22674390
