31
CC(C)Nc1nc(Cl)nc(NC(C)C)n1
C       3.67008609     -0.21865723     -0.77667773
C       3.21534192      0.49504115      0.49633536
C       3.95735243      1.82374506      0.64612526
N       1.78677448      0.77871323      0.44879477
C       0.90951396     -0.27751538      0.62842368
N       1.24178997     -1.30368518      1.38812248
C       0.29435530     -2.22282898      1.47217973
Cl      0.65787366     -3.58277963      2.44306257
N      -0.89885568     -2.22463770      0.89877688
C      -1.12379883     -1.15616528      0.15936714
N      -2.35443598     -1.11856375     -0.47468452
C      -2.96044250      0.18652776     -0.70503318
C      -4.09346709      0.01074910     -1.71692907
C      -3.50725967      0.76939073      0.59805652
N      -0.25350813     -0.16452008     -0.00150118
H       3.43149618      0.36916738     -1.67022639
H       3.18141897     -1.19292273     -0.88295139
H       4.75169886     -0.38942177     -0.76092186
H       3.46577409     -0.11908716      1.37024858
H       3.64351869      2.34212836      1.55898842
H       3.75634834      2.49222441     -0.19875811
H       5.03894968      1.66277282      0.70376211
H       1.46592967      1.31109029     -0.35291595
H      -2.95085801     -1.81314388     -0.03759778
H      -2.23681596      0.88484008     -1.14355757
H      -4.57232226      0.97044954     -1.93775213
H      -3.71225676     -0.40136240     -2.65787247
H      -4.86151370     -0.67582482     -1.34301237
H      -2.70556739      0.94315541      1.32358717
H      -4.23278773      0.09300171      1.06388199
H      -4.00433259      1.72811893      0.41624114
