26
O=[N+]([O-])c1c2ccccc2cc2ccccc12
O       0.71612111     -2.61895341     -1.93996416
N       0.51258046     -2.42555805     -0.73393210
O       0.53271991     -3.29064754      0.15182146
C       0.22579763     -1.06848438     -0.32330583
C      -1.13434794     -0.65312171     -0.30918189
C      -2.24681807     -1.46148477     -0.66629686
C      -3.55211159     -0.96893229     -0.62257470
C      -3.78267917      0.33969670     -0.22257318
C      -2.70873993      1.15411601      0.13310695
C      -1.38859491      0.67373462      0.09459726
C      -0.31944892      1.51164728      0.45740213
C       1.01817577      1.07910679      0.43578675
C       2.05151882      1.95588631      0.80793159
C       3.38401918      1.54678525      0.79339048
C       3.70338328      0.25311206      0.40597719
C       2.68883837     -0.63017178      0.03339222
C       1.32292729     -0.23924294      0.03916690
H      -2.11062580     -2.49408717     -0.98594075
H      -4.38509055     -1.60981719     -0.90140306
H      -4.79709624      0.72883734     -0.18655691
H      -2.91403880      2.17715427      0.44361754
H      -0.53565676      2.53475299      0.76697781
H       1.82517938      2.97538028      1.11546075
H       4.16988719      2.23914972      1.08461632
H       4.74066319     -0.07276423      0.39227860
H       2.98343708     -1.63609416     -0.26379449
