28
CCCCOC(=O)c1ccc(O)cc1
C       4.36396586      0.88060821      0.48570612
C       3.09732492      0.04985630      0.61925225
C       2.81729825     -0.75092165     -0.65459548
C       1.56777408     -1.61834826     -0.52762887
O       0.42655069     -0.76973448     -0.34911296
C      -0.74670825     -1.43516269     -0.20778648
O      -0.88673534     -2.64763506     -0.22879831
C      -1.87090682     -0.47769334     -0.01908152
C      -1.67902120      0.91219388      0.01392787
C      -2.76830238      1.77040266      0.19465159
C      -4.04454533      1.23567798      0.34177930
O      -5.13340463      2.03560466      0.51999784
C      -4.25063136     -0.13870026      0.31165952
C      -3.16439811     -0.99735391      0.13136482
H       4.54659529      1.44376673      1.40626245
H       4.27889495      1.59559057     -0.33884814
H       5.23389478      0.24270866      0.29962448
H       2.25614512      0.71672732      0.84037529
H       3.20316094     -0.63227305      1.47079901
H       2.68910826     -0.05282536     -1.49085169
H       3.67616572     -1.39192358     -0.88471331
H       1.44080501     -2.20541009     -1.44463516
H       1.66425881     -2.29754646      0.32765830
H      -0.68616666      1.34077478     -0.09946741
H      -2.60107704      2.84288331      0.21755321
H      -4.84531010      2.96315076      0.52049932
H      -5.25300960     -0.54182527      0.42811537
H      -3.33172586     -2.07259235      0.10883529
