17
C[C@@H](O)[C@H](N)C(=O)O
C      -1.76931553     -0.87008701     -0.05871084
C      -0.66723100      0.08779945     -0.49495795
O      -1.22587501      1.41292025     -0.57398022
C       0.51938091      0.12285588      0.48955685
N       1.36731410      1.34670131      0.23688026
C       1.40883514     -1.11164929      0.30231076
O       1.07903692     -2.26409727      0.53025657
O       2.63436966     -0.76626557     -0.17528542
H      -2.61869890     -0.81374260     -0.74840963
H      -1.42394581     -1.90647138     -0.02922797
H      -2.15306237     -0.59851309      0.93082328
H      -0.32185333     -0.17987785     -1.50086177
H      -1.95916118      1.37656195     -1.21479519
H       0.17815231      0.17226591      1.52923454
H       1.64634757      1.71490764      1.15214052
H       0.69802025      2.05413837     -0.10771753
H       2.60768628      0.22255329     -0.26725626
