9
NC(=O)NO
N      -1.38631339     -0.44844198     -0.15973218
C      -0.16695998      0.11906434     -0.33906655
O       0.14099635      0.71067231     -1.36588811
N       0.67379748     -0.04542429      0.73053990
O       1.99912629      0.40782073      0.48310708
H      -2.04106730     -0.21736623     -0.89785879
H      -1.77480423     -0.38330550      0.77126130
H       0.63213824     -0.94797744      1.19072363
H       1.92308654      0.80495806     -0.41308627
