20
O=C1C=CC(=O)N1c1ccccc1
O       1.21489411      2.37423176     -0.82252595
C       1.65570511      1.29925848     -0.45162348
C       3.10439630      1.07622530     -0.39309952
C       3.30829466     -0.16291001      0.03857703
C       1.99766916     -0.77893300      0.27235388
O       1.92271645     -1.92736229      0.67601567
N       1.03658495      0.14763386     -0.03945358
C      -0.37665652     -0.05364442      0.05030481
C      -1.28935088      0.95893664     -0.29231621
C      -2.67427340      0.76345094     -0.20497445
C      -3.18333556     -0.45338089      0.22856194
C      -2.30630096     -1.47280027      0.57406490
C      -0.92194421     -1.27387609      0.48552501
H       3.83011663      1.82236467     -0.66455366
H       4.24070863     -0.67289316      0.20471741
H      -0.96313616      1.93483595     -0.63889827
H      -3.35031854      1.57005447     -0.47859280
H      -4.25690014     -0.60628144      0.29674569
H      -2.69201207     -2.43062260      0.91511717
H      -0.29685759     -2.11428789      0.77168812
