28
Cc1cc(NS(=O)(=O)c2ccc(N)cc2)no1
C       4.06957091     -0.81763597      1.11951293
C       3.20103595      0.14706493      0.42384806
C       2.19523003      0.03883452     -0.50463472
C       1.79392876      1.36814778     -0.74205197
N       0.81345854      1.85064328     -1.58670046
S      -0.34738385      0.94302690     -2.35167194
O       0.29075115     -0.17101598     -3.02051218
O      -1.19758119      1.86675347     -3.07180324
C      -1.30902990      0.30484773     -1.00059910
C      -1.99233125      1.19486248     -0.16910918
C      -2.74207160      0.69712397      0.89959496
C      -2.85664843     -0.68043918      1.11378754
N      -3.50669585     -1.16253887      2.25462737
C      -2.12999584     -1.55385062      0.29776534
C      -1.37513813     -1.07082776     -0.77431644
N       2.51227350      2.22920746     -0.01682356
O       3.39363781      1.45931068      0.72092433
H       5.12100658     -0.62645074      0.88422884
H       3.93812278     -0.74039193      2.20312270
H       3.83491785     -1.84392231      0.82062758
H       1.82571572     -0.87305125     -0.94738056
H       0.69932705      2.85899465     -1.63832523
H      -1.94040481      2.26774665     -0.33641190
H      -3.24277138      1.39632458      1.56498891
H      -3.81655753     -2.12649886      2.17819429
H      -4.23970498     -0.55160389      2.60210432
H      -2.15076603     -2.62389981      0.48972944
H      -0.84189587     -1.77120415     -1.41271615
