17
O=C(O)c1ccc([N+](=O)[O-])cc1
O       3.36438098      0.76828512      0.43924931
C       2.57070997      0.33063874     -0.37225839
O       2.95923026     -0.04472390     -1.60278800
C       1.11522031      0.14795874     -0.14900821
C       0.58589432      0.50450708      1.09996959
C      -0.77994314      0.35103175      1.35903110
C      -1.61848226     -0.16254010      0.36033274
N      -3.05383749     -0.32587700      0.62691736
O      -3.47301811      0.00335708      1.74542274
O      -3.75988645     -0.78324501     -0.28284821
C      -1.09868376     -0.52172756     -0.89116712
C       0.26883015     -0.36512508     -1.14243401
H       3.92471869      0.12750264     -1.60995033
H       1.23747398      0.90377111      1.87654668
H      -1.16881429      0.63430774      2.33550299
H      -1.73830800     -0.92180318     -1.67595772
H       0.66451484     -0.64631817     -2.11656052
