17
CC(C)(C)C(=O)O
C      -0.54568026      1.20229047      0.78511526
C      -0.04904599     -0.06768816      0.08284308
C       0.15916866     -1.17355985      1.12862114
C      -1.07561364     -0.54169252     -0.95357213
C       1.27416679      0.22397511     -0.61300932
O       2.34867234     -0.31402914     -0.40086169
O       1.18391841      1.18733469     -1.55179847
H      -1.47133482      1.01269179      1.33988615
H      -0.74792490      2.00621592      0.06830175
H       0.20171282      1.57940791      1.49272242
H      -0.77536519     -1.40930568      1.64992204
H       0.52506944     -2.09637684      0.66354629
H       0.89656255     -0.87381698      1.88239406
H      -2.02521755     -0.81010521     -0.47737701
H      -0.70972998     -1.42010072     -1.49767664
H      -1.28596583      0.23554988     -1.69698785
H       2.09660714      1.25920934     -1.90206911
