21
OCC(CO)(CO)CO
O      -0.45953666     -0.58218777      2.17758850
C       0.14113471     -1.01232389      0.95179778
C       0.06567924      0.09355145     -0.12366448
C       0.80808504     -0.38807198     -1.38579613
O       2.19276388     -0.59200553     -1.11843548
C       0.72652389      1.38358503      0.40883937
O      -0.02127710      1.97212140      1.47115258
C      -1.40653349      0.38742259     -0.47724832
O      -2.01599672     -0.74077385     -1.10309811
H      -0.44901112     -1.35561054      2.77120286
H      -0.37225362     -1.92212555      0.62160664
H       1.18070679     -1.27399209      1.17713779
H       0.72720165      0.35311754     -2.18897616
H       0.39858318     -1.33536487     -1.75324585
H       2.59987120     -0.89351534     -1.95012987
H       1.73906745      1.19218448      0.78076273
H       0.80409436      2.13503095     -0.38459154
H      -0.22719586      1.23806238      2.09107813
H      -1.99602917      0.63755449      0.41127229
H      -1.47501829      1.22877064     -1.17617978
H      -2.96085938     -0.52542951     -1.20107296
