35
Cc1nnc2n1-c1ccc(Cl)cc1C(c1ccccc1)=NC2
C      -3.86907680     -0.80638621      1.41252818
C      -3.17094108     -1.36928801      0.23290297
N      -3.44490046     -2.54423379     -0.29725990
N      -2.51895728     -2.80457740     -1.26786737
C      -1.69147010     -1.78348884     -1.32191230
N      -2.07873890     -0.81708971     -0.41852317
C      -1.49984461      0.47282799     -0.29967404
C      -2.32657598      1.57184355     -0.01058561
C      -1.80068106      2.86613525      0.01850802
C      -0.45328742      3.07368500     -0.25347222
Cl      0.18621603      4.66937323     -0.23494782
C       0.38087003      1.99651091     -0.53867913
C      -0.12807963      0.68522937     -0.54434313
C       0.85943044     -0.42630923     -0.74090637
C       2.15150423     -0.37465290      0.01908053
C       3.32107373     -0.83388160     -0.59852177
C       4.53594164     -0.79726545      0.08741396
C       4.58467254     -0.31279217      1.39407521
C       3.41898732      0.12743415      2.02095038
C       2.20079524      0.09253152      1.33892375
N       0.68521940     -1.43917074     -1.52003603
C      -0.56068567     -1.59474704     -2.25762887
H      -4.30583015     -1.61451675      2.00908325
H      -4.68623819     -0.14917533      1.10210304
H      -3.18736633     -0.25471286      2.06627177
H      -3.39863661      1.46545837      0.13209448
H      -2.45494705      3.70979410      0.22828774
H       1.43229787      2.18262614     -0.75047114
H       3.28910944     -1.22338365     -1.61371459
H       5.44211930     -1.15404999     -0.39583819
H       5.53133823     -0.29004218      1.92873390
H       3.45897605      0.48847107      3.04583661
H       1.30191638      0.41496057      1.85642987
H      -0.73342057     -0.74713330     -2.93162743
H      -0.47078999     -2.47998409     -2.89721460
