25
OCCN(CCO)CCO
O       2.89117394     -1.08357664     -0.57794540
C       1.83799801     -1.63737441      0.20590522
C       0.46364778     -1.28567330     -0.39662076
N      -0.12531747      0.01400582      0.04548649
C       0.78647018      1.13465280     -0.32764270
C       0.34557315      2.51033511      0.20480610
O       0.05496891      2.42854394      1.59794122
C      -1.46148831      0.20229095     -0.58999982
C      -2.51587921     -0.80730474     -0.10257973
O      -2.49922702     -0.87878186      1.32137496
H       3.72258828     -1.28956631     -0.11639541
H       1.96847588     -2.72473199      0.20386556
H       1.92495947     -1.28361480      1.23871047
H      -0.20881521     -2.08710802     -0.07367931
H       0.52490395     -1.31707828     -1.49203684
H       1.76113590      0.95654047      0.13715978
H       0.93324665      1.18487826     -1.41324100
H      -0.53826715      2.88965786     -0.31552374
H       1.14848146      3.24166799      0.06855075
H      -0.35610343      1.55133795      1.72310205
H      -1.85039413      1.18576263     -0.30716034
H      -1.39391104      0.17776738     -1.68432869
H      -2.33834266     -1.80930048     -0.50358299
H      -3.51604762     -0.49406667     -0.41762208
H      -1.55983030     -0.77926365      1.57145620
