19
CC(O)(P(=O)(O)O)P(=O)(O)O
C       0.27509201     -1.81540074     -0.32232476
C       0.14682304     -0.29062576     -0.28421691
O       0.46936305      0.17612864     -1.63037651
P      -1.58860190      0.15872655      0.02786855
O      -2.36486348     -0.53393896      1.09551266
O      -1.70280535      1.75240320      0.11416595
O      -2.28984248     -0.06564040     -1.41002847
P       1.35532948      0.41340636      0.87168864
O       1.15894111      0.17547957      2.33309468
O       2.80405166     -0.11386959      0.40971434
O       1.51521259      1.97641686      0.54644107
H      -0.42172710     -2.24808615     -1.04784563
H       0.06261418     -2.24652114      0.66049164
H       1.28320578     -2.11825231     -0.62292792
H      -0.38421885      0.24443607     -2.10603906
H      -2.57101557      2.06920499      0.42513863
H      -3.26482149     -0.06081230     -1.34912560
H       3.50168006      0.06110358      1.06597802
H       2.01558326      2.46584151      1.22279067
