26
CN1CCC[C@H]1c1cccnc1
C      -0.84228326     -2.14008314      0.85022823
N      -0.88867507     -0.68398041      0.90049288
C      -2.20769065     -0.18960052      1.29353534
C      -2.10192539      1.28568713      0.96212607
C      -1.27569842      1.32225799     -0.31742926
C      -0.59606591     -0.05471739     -0.40254661
C       0.87717712      0.06417111     -0.70303538
C       1.82324482      0.39780551      0.27263932
C       3.16635391      0.51609581     -0.07213045
C       3.52486259      0.30314879     -1.39211561
N       2.64627105     -0.01129472     -2.36744431
C       1.34834064     -0.12123296     -2.00036589
H      -1.55941481     -2.55626761      0.13355666
H       0.15896960     -2.48891623      0.57582220
H      -1.06316321     -2.56057757      1.83747891
H      -2.40870075     -0.34971726      2.35731405
H      -3.01047546     -0.65338691      0.70629619
H      -3.08116097      1.75688143      0.83535463
H      -1.57038453      1.81817412      1.76062823
H      -0.57654615      2.16580930     -0.29365277
H      -1.93422663      1.46445336     -1.18292239
H      -1.08870457     -0.62562917     -1.20306827
H       1.51302390      0.56058423      1.30234722
H       3.91311162      0.76815015      0.67181825
H       4.56021190      0.38352911     -1.71000919
H       0.67354863     -0.37134414     -2.81491805
