36
C1CNCCN1.O=C(O)CCCCC(=O)O
C       1.10363430     -0.68914446     -0.59131109
C       1.26438423      0.64412770      0.17031588
N       0.05115697      1.47940374      0.12955861
C      -1.10363404      0.68914448      0.59131109
C      -1.26438452     -0.64412771     -0.17031570
N      -0.05115701     -1.47940360     -0.12955916
O       2.66498805     -1.48762807      0.02957176
C       2.80456610     -0.27644602      0.07826877
O       3.97487262      0.32874973     -0.23260265
C       1.74268915      0.71423984      0.50010806
C       0.36509626      0.07764599      0.69055474
C      -0.30166748     -0.28514665     -0.64328083
C      -1.69164952     -0.89409662     -0.45413165
C      -2.72607245      0.12452376     -0.05419239
O      -2.59376363      1.33507619      0.00166188
O      -3.90779275     -0.45021298      0.24375793
H       0.99910909     -0.49382447     -1.66578840
H       2.01203146     -1.28892387     -0.46727451
H       1.52935196      0.44575891      1.21626948
H       2.09586027      1.21083133     -0.26304329
H      -0.11718738      1.73429617     -0.84460305
H      -2.01203129      1.28892383      0.46727479
H      -0.99910842      0.49382452      1.66578842
H      -1.52935310     -0.44575870     -1.21626905
H      -2.09586011     -1.21083161      0.26304394
H       0.11718760     -1.73429626      0.84460205
H       3.95171764      1.29992138     -0.13944740
H       2.06643096      1.14831400      1.45295979
H       1.68235815      1.51346239     -0.24675954
H       0.44483581     -0.81690783      1.32005185
H      -0.26686034      0.79099048      1.23191551
H      -0.36399099      0.60520953     -1.28077639
H       0.32106242     -1.01351499     -1.17517266
H      -2.01887131     -1.33312669     -1.40339676
H      -1.65673627     -1.68408929      0.30384107
H      -4.49121246      0.30303585      0.47310679
