50
CC(C)C(=O)OCC(C)(C)C(OC(=O)C(C)C)C(C)C
C       5.12232897      0.79289892      1.61205306
C       4.95046282      0.70104330      0.10020312
C       6.25743489      0.28992954     -0.57259845
C       3.84116792     -0.27965153     -0.23315641
O       4.00299552     -1.40693468     -0.67896072
O       2.62900856      0.28159011      0.04156933
C       1.50445815     -0.57292694     -0.22116958
C       0.18374210      0.14207578      0.14994738
C       0.25342115      0.57900422      1.63817238
C       0.03934252      1.44270966     -0.66928307
C      -1.03399046     -0.83719594     -0.00732421
O      -2.26188953     -0.07908569      0.12629987
C      -3.06699202     -0.34775961      1.19001805
O      -2.84040015     -1.17971699      2.05812496
C      -4.30131478      0.53204768      1.17540642
C      -3.91813200      1.99873607      1.33481119
C      -5.12402759      0.29429525     -0.08584671
C      -1.13248879     -1.70005384     -1.29904312
C      -2.28552103     -2.71008427     -1.17220018
C      -1.32839807     -0.90581061     -2.59058223
H       4.19789836      1.12968214      2.09362488
H       5.91466830      1.50199306      1.87317185
H       5.37912768     -0.18167557      2.04204418
H       4.66242074      1.68057384     -0.30122007
H       7.04318895      1.02776305     -0.37972167
H       6.12811114      0.20915211     -1.65744123
H       6.60752073     -0.68225666     -0.20803454
H       1.60971754     -1.49262613      0.36807012
H       1.51398539     -0.82651445     -1.28720789
H      -0.65899368      1.10066876      1.94639234
H       1.09036162      1.26161764      1.82368946
H       0.38415399     -0.28689688      2.29693462
H      -0.91635454      1.94143696     -0.47837678
H       0.12006155      1.26884587     -1.74307143
H       0.82741908      2.16087180     -0.41261696
H      -0.94780555     -1.56141625      0.81472718
H      -4.90973038      0.23952792      2.04056352
H      -4.81138775      2.62414029      1.43386271
H      -3.34572997      2.36218880      0.47452132
H      -3.29982710      2.14464766      2.22717110
H      -6.06312206      0.85599427     -0.04766223
H      -4.58232422      0.60334095     -0.98654372
H      -5.36750379     -0.76795229     -0.19621451
H      -0.21551532     -2.29267991     -1.39909585
H      -2.18776272     -3.30282277     -0.25663129
H      -2.28119413     -3.40794869     -2.01678393
H      -3.26067880     -2.21281135     -1.15734448
H      -0.40641211     -0.39985609     -2.88464188
H      -1.59011637     -1.57042153     -3.42182751
H      -2.12538474     -0.16167696     -2.49677837
