24
O=C(NCCO[N+](=O)[O-])c1cccnc1
O      -0.19699125      1.94118587     -0.24245079
C      -0.43272615      0.75327683     -0.43261243
N       0.45173927     -0.09042414     -1.07474978
C       1.74013077      0.39978655     -1.54080576
C       2.75284956      0.57628494     -0.40732739
O       3.04088409     -0.71491158      0.12974075
N       3.97465751     -0.66494811      1.19013069
O       4.44583718      0.43536602      1.47896080
O       4.19580318     -1.77166696      1.67774315
C      -1.68713112      0.15393347      0.07615489
C      -2.33817638      0.73470383      1.16651718
C      -3.51973613      0.16944296      1.64131059
C      -4.01334496     -0.95654942      1.00131011
N      -3.41765729     -1.53518487     -0.06529206
C      -2.27336173     -0.95948060     -0.51034091
H       0.33367853     -1.09327277     -1.00009275
H       1.58377348      1.35602869     -2.05148948
H       2.10469949     -0.33288320     -2.26836480
H       3.66581472      1.01831529     -0.82417592
H       2.34355162      1.22979448      0.37190449
H      -1.92787681      1.62140082      1.64452918
H      -4.04291617      0.59892235      2.48879754
H      -4.93049976     -1.43388420      1.33603705
H      -1.85300165     -1.43523627     -1.39081914
