15
O=C1OC(=O)c2c(Cl)c(Cl)c(Cl)c(Cl)c21
O      -2.90545374     -1.52164638     -0.20474780
C      -2.19420125     -0.54302086     -0.14468130
O      -2.60591384      0.74882653     -0.14896108
C      -1.57509882      1.62615408     -0.07078183
O      -1.66225319      2.83420703     -0.05635315
C      -0.37005700      0.82002008     -0.00944413
C       0.96118527      1.19900540      0.07914798
Cl      1.39478795      2.86964032      0.13339023
C       1.93426185      0.18174711      0.12266848
Cl      3.61950152      0.60383237      0.23387383
C       1.54515563     -1.18158060      0.07622244
Cl      2.75224886     -2.43479689      0.13035380
C       0.18293676     -1.52777636     -0.01374843
Cl     -0.33053903     -3.17545933     -0.07255297
C      -0.74656094     -0.49915251     -0.05438607
