16
C1=CCCCC1
C       0.87850318     -1.24267086     -0.35428894
C       1.55663330     -0.12623373     -0.04977165
C       0.88713905      1.16148734      0.33333288
C      -0.59939366      0.99170860      0.65771597
C      -1.28519837      0.06770909     -0.34500673
C      -0.62082391     -1.31119552     -0.37752244
H       1.42191005     -2.15081287     -0.60309175
H       2.64354393     -0.13456982     -0.07148642
H       1.00712421      1.87231413     -0.49288846
H       1.39526273      1.59148700      1.20390288
H      -1.08964468      1.97175467      0.66401941
H      -0.70894030      0.57496992      1.66721934
H      -1.23934104      0.52025047     -1.34394218
H      -2.34640911     -0.04018747     -0.09387697
H      -0.94741606     -1.84324243     -1.27821390
H      -0.95294932     -1.90276852      0.48389899
