11
COC(=O)CCl
C      -1.88180085     -0.07229339      0.19892573
O      -0.52841552     -0.48331982      0.40378032
C       0.39281416      0.28566562     -0.25554272
O       0.11023862      1.24280020     -0.96192763
C       1.77387290     -0.24948253      0.04163192
Cl      3.02940513      0.69846369     -0.78070905
H      -2.52964003     -0.74737204      0.76487108
H      -2.03335918      0.94591880      0.57059015
H      -2.14774964     -0.14389516     -0.86032152
H       1.85030207     -1.28143870     -0.30999993
H       1.96433234     -0.19504667      1.11642596
