14
O=C(O)c1ccccn1
O       2.83438026     -1.21476807     -0.37157709
C       2.20050777     -0.18057521     -0.26584770
O       2.74343384      1.06182507     -0.29324060
C       0.72195591     -0.09173822     -0.08818773
C      -0.04806756     -1.24411766     -0.03122121
C      -1.42106073     -1.09705993      0.13567245
C      -1.96502082      0.18148289      0.23799485
C      -1.11360651      1.27537392      0.16965796
N       0.22459808      1.17823579      0.00836392
H       2.01489648      1.72006727     -0.18747014
H       0.40792855     -2.22558566     -0.11431550
H      -2.06342692     -1.97265719      0.18573953
H      -3.03336210      0.32191714      0.36863009
H      -1.50315626      2.28759986      0.24580116
