51
C=C(C)[C@H]1Cc2c(ccc3c2O[C@@H]2COc4cc(OC)c(OC)cc4[C@@H]2C3=O)O1
C       6.03844063      1.87696785     -0.64946427
C       5.59331835      1.28945734      0.47564646
C       6.51119051      1.14481393      1.66365510
C       4.18148248      0.76843274      0.69090958
C       3.22468588      0.75228868     -0.51928887
C       2.38891668     -0.41319444     -0.14123502
C       3.05605299     -1.14884375      0.82635168
C       2.55402810     -2.33320769      1.32500102
C       1.31881054     -2.77041889      0.84186591
C       0.63496029     -2.02150437     -0.13698838
C       1.18115794     -0.84734457     -0.65412031
O       0.59271815     -0.08686943     -1.61613553
C      -0.39214860     -0.78050252     -2.40010652
C      -1.13313236      0.26168472     -3.23371448
O      -1.83936157      1.21659842     -2.43313455
C      -2.55634929      0.69814628     -1.38839314
C      -3.45910809      1.57951121     -0.78881789
C      -4.25921319      1.16103921      0.27736887
O      -5.17454279      1.95687215      0.92105353
C      -5.27960995      3.30975995      0.50181509
C      -4.15206541     -0.16284442      0.74280286
O      -4.98249400     -0.50685146      1.78091606
C      -4.86342778     -1.81754295      2.31585401
C      -3.23645852     -1.03553796      0.14024617
C      -2.40865841     -0.60700339     -0.91204816
C      -1.42003871     -1.54374448     -1.56882122
C      -0.68840264     -2.46041610     -0.61610999
O      -1.16960130     -3.51977224     -0.21941275
O       4.24982531     -0.59440967      1.20752582
H       5.41443084      2.02807522     -1.52328425
H       7.06128773      2.23596094     -0.72988392
H       6.69700202      0.08843026      1.88196806
H       7.48267584      1.62213480      1.49562843
H       6.06448164      1.61197679      2.54750931
H       3.72786284      1.37586463      1.48958878
H       3.72967465      0.52901477     -1.46440592
H       2.66193227      1.68624306     -0.60198808
H       3.09625448     -2.89613752      2.07706326
H       0.88422358     -3.68914887      1.23131386
H       0.14247191     -1.46512163     -3.07278820
H      -0.41530400      0.83356144     -3.83213437
H      -1.84122854     -0.20891066     -3.92678396
H      -3.51981724      2.58708534     -1.18550171
H      -5.62295548      3.37566687     -0.53578449
H      -4.33319081      3.84252869      0.64142025
H      -6.03052769      3.79736619      1.13098743
H      -5.57009743     -1.90455576      3.14684184
H      -3.85897980     -1.99329549      2.71497047
H      -5.13323296     -2.57323206      1.57092921
H      -3.15642091     -2.06410374      0.48001656
H      -1.99151819     -2.18496739     -2.25508316
