59
CCOP(=O)(OCC)OP(=O)(OCC)OP(=O)(OCC)OP(=O)(OCC)OCC
C      -2.97171373      3.71793106     -1.37438496
C      -2.19960500      2.44004318     -1.12056082
O      -3.03636838      1.33487066     -1.41928954
P      -3.46157489      0.32346871     -0.24677780
O      -4.40703671     -0.75582035     -0.66196539
O      -4.04885889      1.30304793      0.89120753
C      -4.55468036      0.69255641      2.06487383
C      -5.02042121      1.78141406      3.00990928
O      -2.09432658     -0.18502032      0.37758135
P      -1.03311358     -1.06673222     -0.41082382
O      -0.53031913     -0.49393499     -1.69650341
O      -1.70741643     -2.52120779     -0.49340814
C      -2.21383108     -2.93372959     -1.75364440
C      -3.17447421     -4.08673097     -1.54204714
O       0.10238429     -1.27446225      0.68887858
P       1.54915397     -1.79957819      0.29460760
O       1.57911524     -3.13167200     -0.38836129
O       2.33846347     -1.78578636      1.69764718
C       1.99800936     -2.77053960      2.65934538
C       3.23945049     -3.57053510      2.99532253
O       2.24265109     -0.62436291     -0.51632598
P       2.26625192      0.90179439     -0.07741390
O       0.93316594      1.47698347      0.29097134
O       3.37940884      0.98270921      1.07884542
C       4.68966659      0.51345346      0.81876484
C       5.65619194      1.67711894      0.90010744
O       2.97908409      1.63346477     -1.32409435
C       2.17004406      1.88877581     -2.46059335
C       3.07068726      2.21398895     -3.63361130
H      -3.35924220      3.74110656     -2.39830929
H      -3.83703606      3.78233358     -0.70792086
H      -2.33821376      4.59524028     -1.21782652
H      -1.32186988      2.39447624     -1.77827793
H      -1.84633805      2.40721065     -0.08113801
H      -5.39203568      0.03596990      1.80591166
H      -3.76666080      0.09608243      2.53425392
H      -5.79499488      2.39405426      2.53558075
H      -5.42142956      1.35428243      3.93242501
H      -4.19595146      2.45187204      3.26007616
H      -2.72503776     -2.10100438     -2.24758602
H      -1.37568281     -3.25001528     -2.38050483
H      -4.01308783     -3.78104147     -0.90735661
H      -2.67734408     -4.91686962     -1.02826232
H      -3.56844680     -4.44734070     -2.49686853
H       1.20842017     -3.43254959      2.28875159
H       1.62140535     -2.26019883      3.55182841
H       3.64236246     -4.05063394      2.09707071
H       3.01703487     -4.34205785      3.73859281
H       4.02802450     -2.91963507      3.38497909
H       4.93463067     -0.23650054      1.57519707
H       4.75729555      0.03194206     -0.16129987
H       6.68258421      1.34549044      0.71415101
H       5.39580851      2.44772097      0.16544578
H       5.61127464      2.15008220      1.88964569
H       1.51371557      2.73772994     -2.24375583
H       1.55374769      1.01474068     -2.69192629
H       3.73768829      3.04900340     -3.39349847
H       2.48011870      2.46953333     -4.51732988
H       3.70927207      1.35746750     -3.87030513
