41
CCOP(=O)(NC(C)C)Oc1ccc(SC)c(C)c1
C      -2.40972511     -2.59894278      1.07583211
C      -2.01607857     -1.53490650      0.07174053
O      -1.56899788     -0.39344865      0.78127720
P      -1.14509106      0.93133686     -0.03784438
O      -0.62198154      2.01942126      0.85227097
N      -2.43511718      1.36985200     -0.96088477
C      -3.50498160      2.15639030     -0.34331974
C      -4.48120116      2.59978807     -1.43437516
C      -4.24924176      1.36304079      0.72846745
O      -0.04521431      0.39014682     -1.08741056
C       1.18782609     -0.10046105     -0.76113714
C       1.97092669     -0.53028660     -1.82895508
C       3.24216765     -1.05678603     -1.59810382
C       3.74667649     -1.15548157     -0.29492487
S       5.38558914     -1.84217559     -0.08293721
C       6.34867541     -0.33342498     -0.36061119
C       2.95659794     -0.73207354      0.79013563
C       3.43622553     -0.82655823      2.21394707
C       1.67661858     -0.20066412      0.53993413
H      -3.20327905     -2.23168541      1.73507000
H      -1.55942792     -2.85943829      1.71482134
H      -2.76102120     -3.50248241      0.56981660
H      -2.87725233     -1.27718175     -0.55130808
H      -1.21494750     -1.91068649     -0.57098235
H      -2.08394731      1.89491537     -1.75524028
H      -3.07575126      3.05624354      0.11256829
H      -3.97517272      3.20547139     -2.19456219
H      -4.94075766      1.74059378     -1.93614920
H      -5.28517228      3.21052357     -1.00928126
H      -3.59514323      1.11839603      1.57112026
H      -5.08591317      1.94633063      1.12861187
H      -4.65647459      0.42837680      0.32749471
H       1.59416783     -0.46029536     -2.84587220
H       3.83546933     -1.39254394     -2.44564042
H       6.07917669      0.43478224      0.36936217
H       7.41214541     -0.56093515     -0.24929355
H       6.17967854      0.05111495     -1.37016117
H       3.65468144     -1.86663914      2.47637046
H       2.67810065     -0.46732382      2.91832682
H       4.33102390     -0.21280135      2.35802302
H       1.07614305      0.13049834      1.38380395
