11
CC(C)Br
C       1.22826035     -0.35011142     -0.19949529
C       0.06145189      0.46861312      0.32472331
C      -1.27636878     -0.19737731      0.05407673
Br      0.08099058      2.22387545     -0.53952772
H       2.18277637      0.14983435     -0.00139357
H       1.15648317     -0.51131887     -1.28103342
H       1.25943390     -1.33148226      0.28551296
H       0.18167157      0.66323879      1.39495183
H      -2.10489229      0.41129963      0.43269655
H      -1.32787091     -1.17370648      0.54745431
H      -1.44193585     -0.35286501     -1.01796569
