35
C=CCC1(C(C)CCC)C(=O)NC(=O)NC1=O
C      -2.98785211      2.85033180     -0.21204320
C      -2.21053998      2.07184803      0.55073970
C      -0.83044994      1.60304302      0.14850945
C      -0.74891273      0.10087700     -0.24817757
C       0.70338260     -0.29478949     -0.73785054
C       0.80908830     -1.78245889     -1.12499295
C       1.82641793      0.09052467      0.26085160
C       3.24324863     -0.19878743     -0.25026434
C       4.29804416      0.35843964      0.69485539
C      -1.68862291     -0.09099014     -1.43471698
O      -1.59790347      0.56160126     -2.47474541
N      -2.63518090     -1.06987003     -1.33153385
C      -2.78957148     -1.94184364     -0.30253072
O      -3.70520604     -2.75737492     -0.28208577
N      -1.90250736     -1.84544435      0.71989861
C      -1.13699018     -0.74198188      0.95886877
O      -0.77075802     -0.49362948      2.10644719
H      -3.96341334      3.17693398      0.13578844
H      -2.67254895      3.18149832     -1.19810964
H      -2.56521039      1.77917283      1.53855406
H      -0.45758126      2.22372792     -0.67753040
H      -0.18060583      1.81735832      1.00522983
H       0.89870594      0.27472022     -1.65841467
H       1.73993050     -1.98185503     -1.66539856
H       0.00069313     -2.09013963     -1.79414444
H       0.79075693     -2.42923955     -0.24202990
H       1.68229546     -0.43553200      1.21135529
H       1.77097942      1.16269066      0.47495185
H       3.38051051      0.24496276     -1.24287806
H       3.40296054     -1.27792484     -0.34458236
H       4.20249517     -0.08230762      1.69232848
H       4.20707528      1.44530009      0.78853435
H       5.30076815      0.13352020      0.31813086
H      -3.27183343     -1.16919030     -2.10981684
H      -2.14166433     -2.39319150      1.53569952
