43
COC(=O)c1ccccc1S(=O)(=O)NC(=O)Nc1nc(OC(F)F)cc(OC(F)F)n1
C      -3.36304452      2.52614506     -0.72868852
O      -3.58544187      1.11553765     -0.76116246
C      -2.47057611      0.38093706     -0.54094712
O      -1.35748225      0.79429279     -0.25928861
C      -2.79639957     -1.04981569     -0.70375326
C      -3.88018748     -1.57413393      0.01795699
C      -4.18148430     -2.93588400     -0.05638802
C      -3.40217404     -3.78123143     -0.84481958
C      -2.32446857     -3.26786140     -1.56979759
C      -2.01876142     -1.90182394     -1.49711458
S      -0.70991923     -1.26071763     -2.50854352
O      -1.15691768      0.01005521     -3.04289452
O      -0.27542349     -2.30635860     -3.40931543
N       0.48456650     -0.94492788     -1.41274749
C       1.17584983     -1.87844182     -0.66065872
O       1.01609244     -3.08525017     -0.79818890
N       2.03794572     -1.42826307      0.28788156
C       2.30861867     -0.13434485      0.68752934
N       3.14027975     -0.03874550      1.73341717
C       3.38505109      1.19997283      2.19289634
O       4.19230975      1.37603430      3.29244646
C       4.97523281      0.23406396      3.58258460
F       5.59294880      0.47095210      4.76951945
F       5.96091843      0.13604760      2.65446559
C       2.81101383      2.32817577      1.67277049
C       1.99346152      2.12205646      0.59182047
O       1.35731330      3.23467689      0.09591204
C       0.98671543      3.09310919     -1.26270208
F       0.32714656      4.23127818     -1.60718707
F       2.11545362      3.06612063     -2.01616984
N       1.72489577      0.90888333      0.07855909
H      -3.02762906      2.83729082      0.26561352
H      -2.63170107      2.81428306     -1.49115422
H      -4.31049809      3.02584593     -0.95016331
H      -4.49024137     -0.92675563      0.64776611
H      -5.02244592     -3.33985773      0.50402906
H      -3.63637360     -4.84298525     -0.90080014
H      -1.72602176     -3.93838618     -2.18695112
H       0.52348403      0.02915717     -1.11582654
H       2.50899587     -2.14691114      0.81364717
H       4.41561875     -0.70474036      3.66656752
H       2.99088987      3.31248649      2.08323145
H       0.34238905      2.24003371     -1.48591961
