43
O=C(OCC(O)CO)c1ccccc1Nc1ccnc2cc(Cl)ccc12
O       1.11591171      0.62112997      0.13869596
C       1.64916770     -0.47000337     -0.01230878
O       2.92902241     -0.66911429     -0.41099304
C       3.70477100      0.52631568     -0.63035221
C       4.20756977      1.10374544      0.70062210
O       5.17255593      0.20401067      1.27169282
C       4.87528896      2.46696257      0.50772475
O       6.01219294      2.31936652     -0.34578731
C       0.94678298     -1.76832361      0.20247819
C       1.68472005     -2.96358904      0.28930450
C       1.03986776     -4.18220380      0.49926765
C      -0.34321301     -4.21833314      0.63393937
C      -1.08403591     -3.03723906      0.55348257
C      -0.46237349     -1.79632280      0.32830816
N      -1.24331334     -0.61667872      0.25410820
C      -2.50054301     -0.38288515     -0.36211339
C      -3.00098375     -1.24205426     -1.34063277
C      -4.22601285     -0.95885098     -1.90967976
N      -4.98259604      0.10448481     -1.57570650
C      -4.51905492      0.93715785     -0.63217324
C      -5.30233116      2.02856894     -0.28789519
C      -4.89408033      2.93347263      0.68860298
Cl     -5.89609402      4.27445299      1.08686049
C      -3.68518051      2.75855774      1.34624239
C      -2.88163791      1.66880890      1.01487778
C      -3.27767383      0.74419321      0.01837918
H       4.54779574      0.22429751     -1.26130831
H       3.11344051      1.25665121     -1.19545137
H       3.39004169      1.18980799      1.42261760
H       5.98354708      0.32461027      0.73870859
H       4.18583848      3.18974204      0.06119107
H       5.23429431      2.85077984      1.46808563
H       6.43508300      3.19536925     -0.40259027
H       2.76958004     -2.95758905      0.20511709
H       1.61935698     -5.09972197      0.56917822
H      -0.84920161     -5.16379874      0.81426553
H      -2.16143056     -3.08766060      0.69700944
H      -0.66147316      0.22958223      0.23179005
H      -2.44206669     -2.10325851     -1.68644300
H      -4.64373048     -1.59874249     -2.68191779
H      -6.25340483      2.16952073     -0.79528406
H      -3.36341030      3.45653234      2.11426538
H      -1.94298733      1.53824826      1.54942694
