29
O=C1CCC(N2C(=O)c3ccccc3C2=O)C(=O)N1
O       5.18268580      1.47191568      0.07820537
C       4.06840239      0.95916552      0.12234074
C       3.75605803     -0.35259818     -0.56060569
C       2.28706770     -0.43796684     -0.94768737
C       1.42774762     -0.23551988      0.29735756
N      -0.00381622     -0.33174441      0.05802705
C      -0.85741120     -0.96692802      0.92030304
O      -0.59333847     -1.62765028      1.90666170
C      -2.21140012     -0.71631630      0.43226878
C      -3.43219505     -1.14546741      0.91447958
C      -4.57385920     -0.72699493      0.22340641
C      -4.46849050      0.10049669     -0.91440631
C      -3.21962053      0.52355166     -1.38085152
C      -2.10786958      0.09372234     -0.68335785
C      -0.68816003      0.36194780     -0.90300291
O      -0.25806477      1.08847461     -1.77802860
C       1.74363571      1.11774245      0.94303265
O       0.92195198      1.79053035      1.56281263
N       3.05473816      1.52968348      0.85158228
H       4.03238157     -1.16688793      0.11815942
H       4.37450645     -0.43099639     -1.46125274
H       2.07923037      0.32739639     -1.70388161
H       2.07468933     -1.41150347     -1.40401027
H       1.69523663     -0.99570665      1.04340144
H      -3.49863056     -1.77705106      1.79440351
H      -5.55798211     -1.03935628      0.56897123
H      -5.37270835      0.41638200     -1.43218509
H      -3.12437947      1.16538826     -2.25064325
H       3.26959443      2.41629079      1.28772670
