12
C=C(Cl)C(Cl)CCl
C       1.89366927      0.51717391     -0.60681031
C       0.93529412     -0.29137991     -0.13161836
Cl      1.11139667     -2.00441331     -0.35186644
C      -0.30720743      0.19242783      0.58116447
Cl     -0.24579883     -0.33011714      2.30240380
C      -1.63376960     -0.25735130     -0.03797371
Cl     -1.85877504      0.41338305     -1.67878305
H       1.83248041      1.59534041     -0.50005024
H       2.76809585      0.12250299     -1.11613156
H      -0.30039939      1.28822385      0.62475490
H      -2.47876959      0.10039103      0.55969476
H      -1.71621643     -1.34618141     -0.11163802
