14
O=C(O)CCC(=O)O
O       2.71700983     -0.04622014      0.55750000
C       1.68217300      0.16809205     -0.05351878
O       1.33835711      1.42677086     -0.37640698
C       0.74827041     -0.89027669     -0.57774307
C      -0.65017865     -0.38507139     -0.91212560
C      -1.38288106      0.07171569      0.31836812
O      -1.00489785     -0.00367198      1.47439952
O      -2.59029584      0.59017282      0.02214733
H       2.04556327      1.97066707      0.03193841
H       1.20581034     -1.30951854     -1.48042934
H       0.68617119     -1.68165467      0.17819247
H      -1.22687196     -1.20162347     -1.36056213
H      -0.60651997      0.44402528     -1.62641657
H      -2.96170983      0.84659312      0.89238955
