17
CCCCOC=O
C      -2.56656495      0.55410491     -0.01685235
C      -1.05117065      0.67344299      0.02649169
C      -0.39317921     -0.67295943      0.33698122
C       1.12746761     -0.56707780      0.41950705
O       1.64307033     -0.18902374     -0.86325408
C       2.99143562     -0.05228594     -0.89890579
O       3.76587668     -0.21882915      0.02916392
H      -2.88240190     -0.15154683     -0.79185506
H      -3.01707928      1.52658531     -0.23877496
H      -2.96068216      0.20869704      0.94423775
H      -0.77055051      1.40856869      0.78970992
H      -0.69641294      1.05517937     -0.93760687
H      -0.66387753     -1.38953749     -0.44805739
H      -0.77669612     -1.06040071      1.28797132
H       1.41431665      0.17837406      1.17069591
H       1.54187103     -1.54224609      0.70086393
H       3.29457734      0.23895484     -1.91651857
