31
O=c1[nH]cnc2c1ncn2[C@@H]1O[C@H](CO)[C@@H](O)[C@H]1O
O       4.62550168      0.69180471      2.40804727
C       3.88235099      0.34799781      1.49535623
N       4.28938612     -0.54847754      0.51745785
C       3.48371705     -0.96765320     -0.52505492
N       2.25553784     -0.58812033     -0.73056914
C       1.82724343      0.29632481      0.20708025
C       2.51953323      0.79497548      1.29061998
N       1.75583851      1.67373776      2.01217568
C       0.60988965      1.72246935      1.36300548
N       0.59163824      0.88338085      0.27583098
C      -0.50560791      0.69438333     -0.65959816
O      -1.69332675      1.32931116     -0.13297611
C      -2.82795185      0.46673754     -0.39723784
C      -3.40505445      0.00782769      0.94377100
O      -2.43339285     -0.69661807      1.71285658
C      -2.32389979     -0.68276834     -1.26447765
O      -2.43861428     -0.32332730     -2.65206742
C      -0.85452889     -0.77774494     -0.90641348
O      -0.12798738     -1.37881909     -1.98497233
H       5.23414850     -0.88971382      0.61265800
H       3.97994244     -1.68255255     -1.20125344
H      -0.23400884      2.34555317      1.63355075
H      -0.21780056      1.21037354     -1.58368167
H      -3.57814518      1.06497548     -0.92607531
H      -3.73926850      0.86692687      1.53531438
H      -4.26063493     -0.65606831      0.78678157
H      -1.88619654     -0.02175645      2.15694002
H      -2.86967485     -1.62089747     -1.12985577
H      -1.76784523     -0.87437589     -3.10925443
H      -0.71165801     -1.38819097     -0.00821939
H       0.82086915     -1.29969528     -1.73973898
