43
O=C([O-])C1=NN(c2ccc(S(=O)(=O)[O-])cc2)C(=O)C1N=Nc1ccc(S(=O)(=O)[O-])cc1.[Na+].[Na+].[Na+]
O      -0.31733835      3.69857080      2.65168973
C       0.10395122      2.51049762      2.80045356
O       0.98026177      2.10687733      3.62761247
C      -0.50398402      1.43736314      1.95036178
N      -1.67163298      1.55573284      1.37852938
N      -1.93957970      0.32958155      0.79140278
C      -3.20219116      0.14106253      0.16434543
C      -3.57315705     -1.08490664     -0.41132966
C      -4.83710673     -1.26051341     -0.99394654
C      -5.74445646     -0.20069116     -1.01626998
S      -7.39869826     -0.45370947     -1.71780673
O      -7.18555957     -0.16862210     -3.13403469
O      -8.22724872      0.51589888     -1.00357825
O      -7.68804754     -1.85117555     -1.39964501
C      -5.40165662      1.02881737     -0.45501983
C      -4.13588219      1.19483154      0.12453854
C      -0.91862142     -0.62218615      0.99072938
O      -0.85953969     -1.79470738      0.64048026
C       0.14078080      0.10758335      1.78458037
N       1.35371600      0.23096574      0.96181631
N       2.18652986     -0.66093943      1.23952558
C       3.36878999     -0.52353893      0.48905663
C       3.73364663     -1.54257190     -0.40237446
C       4.95368470     -1.49418668     -1.08436331
C       5.82362921     -0.42282531     -0.86219692
S       7.41855328     -0.38989003     -1.72844684
O       7.79965954      1.02029479     -1.70279768
O       8.23683179     -1.27106313     -0.89862968
O       7.08791973     -0.91259032     -3.05262622
C       5.46945889      0.61341610      0.00652139
C       4.24541530      0.55507701      0.68473655
Na      0.00000000      0.00000000      0.00000000
Na      0.00000000      0.00000000      0.00000000
Na      0.00000000      0.00000000      0.00000000
H      -2.89779752     -1.93398870     -0.41762763
H      -5.11672935     -2.21807122     -1.42522241
H      -6.11429161      1.84868718     -0.46460910
H      -3.88736078      2.16130797      0.55885332
H       0.29560421     -0.37268774      2.75638348
H       3.06269409     -2.38324844     -0.55469383
H       5.23848510     -2.28567399     -1.77202720
H       6.14777497      1.44723072      0.16471586
H       3.97349265      1.34399123      1.38288005
