26
CCCCCCCC
C       3.90154726      0.68641509     -0.59504414
C       2.98827672     -0.18738460      0.25001742
C       1.55518484     -0.18125765     -0.28405227
C       0.64123268     -1.05950138      0.57332251
C      -0.78097947     -1.18227466      0.01880850
C      -1.55801319      0.13588100      0.03871767
C      -3.00416908     -0.06756387     -0.41544482
C      -3.78151833      1.23905731     -0.40175632
H       3.93528717      0.33242179     -1.63035998
H       3.55772659      1.72569965     -0.59796052
H       4.92049129      0.66689473     -0.19594658
H       3.00131038      0.17381752      1.28495574
H       3.37868964     -1.21168961      0.25856468
H       1.18291364      0.84916670     -0.29673416
H       1.54792423     -0.54301003     -1.31931587
H       0.60425326     -0.66750558      1.59703169
H       1.07042288     -2.06723930      0.63686087
H      -1.31921734     -1.92384079      0.62226251
H      -0.74406944     -1.57538375     -1.00447620
H      -1.54722390      0.55424485      1.05239595
H      -1.07595181      0.86667018     -0.62013375
H      -3.02073854     -0.48549236     -1.42875394
H      -3.50341394     -0.78911239      0.24168404
H      -3.32716047      1.97301135     -1.07496085
H      -3.81060711      1.66764803      0.60511618
H      -4.81219794      1.07032780     -0.72907429
