72
C=C1CC[C@H](O)C/C1=C/C=C1\CCC[C@@]2(C)[C@H]1CC[C@@H]2[C@H](C)CCCC(C)C
C      -4.57471101     -2.96381774      0.50537226
C      -5.39992108     -2.05545276     -0.03826406
C      -6.35769672     -2.39294513     -1.15550082
C      -7.80152438     -2.08505547     -0.74990636
C      -7.95159197     -0.64614021     -0.25068126
O      -7.82581510      0.24045064     -1.36458604
C      -6.92498223     -0.30828854      0.84529563
C      -5.50631157     -0.68443011      0.45554303
C      -4.49894640      0.20807426      0.54951807
C      -3.12201151      0.00722130      0.13924189
C      -2.10240732      0.86954395      0.32598845
C      -2.25233829      2.22450186      0.99741479
C      -1.03134441      3.12967743      0.80034751
C       0.30339747      2.48460086      1.21032860
C       0.36119741      0.95372672      0.97977631
C       0.11438268      0.22347557      2.32492105
C      -0.68105215      0.56584662     -0.10675007
C      -0.28081905     -0.85678768     -0.50011242
C       1.24437338     -0.88870161     -0.35820305
C       1.67171898      0.45199137      0.29245727
C       2.95759557      0.30680630      1.15188760
C       3.39808982      1.62980738      1.78687171
C       4.14404589     -0.32793180      0.37826247
C       4.65716180      0.48548814     -0.81534682
C       5.75105489     -0.23554052     -1.61523858
C       7.03135150     -0.59448424     -0.83773009
C       7.70908249      0.63347424     -0.22906842
C       8.01121894     -1.31991492     -1.76450546
H      -4.53504864     -3.98341424      0.13706519
H      -3.92029154     -2.71348094      1.33515440
H      -6.28413646     -3.45142295     -1.43322695
H      -6.08655855     -1.81674281     -2.04953020
H      -8.11270471     -2.77903188      0.04115519
H      -8.45469444     -2.25418954     -1.61409631
H      -8.96298199     -0.50727678      0.14750866
H      -7.78979920      1.14958330     -1.02250453
H      -7.18604418     -0.85290877      1.76224660
H      -6.98806664      0.76164894      1.07937871
H      -4.73326998      1.18993345      0.95358309
H      -2.92242946     -0.93162205     -0.37164845
H      -2.41814967      2.07931388      2.07155117
H      -3.12565665      2.75173689      0.59616208
H      -0.97215836      3.41799436     -0.25791224
H      -1.16932339      4.06378131      1.35801353
H       1.09939014      2.99257496      0.65277166
H       0.48758829      2.71484187      2.26695682
H       0.15480454     -0.86532041      2.22294649
H       0.86424214      0.50508499      3.07145430
H      -0.85971968      0.47170934      2.75629953
H      -0.49945270      1.18596724     -1.00000263
H      -0.59055520     -1.09684547     -1.52289984
H      -0.72700977     -1.60805637      0.16182282
H       1.72337790     -1.01007536     -1.33617807
H       1.53071908     -1.75000540      0.25620520
H       1.89176721      1.15026169     -0.52750177
H       2.74219816     -0.38701374      1.97501263
H       2.68934466      1.96029771      2.55000437
H       3.49017787      2.42511584      1.04078393
H       4.36741851      1.52040947      2.28564473
H       4.96445184     -0.47725793      1.09101253
H       3.86479905     -1.33129431      0.03641246
H       3.83198285      0.68870212     -1.50626887
H       5.02726481      1.46033248     -0.48233671
H       6.01640162      0.39835772     -2.47159192
H       5.32251312     -1.15397580     -2.03724830
H       6.77891238     -1.28683735     -0.02597487
H       7.93304742      1.38372191     -0.99486836
H       7.07774962      1.10053574      0.53277891
H       8.65059305      0.35581819      0.25688882
H       8.91022520     -1.62487816     -1.21847216
H       7.55469856     -2.22272573     -2.18359598
H       8.32118553     -0.67854332     -2.59661799
