16
CC(N)CC(=O)O
C      -0.99648269      1.08005965     -1.12658792
C      -0.05594324      0.52497702     -0.06047712
N      -0.78599634      0.34691953      1.21218066
C       0.54942014     -0.81223103     -0.49567998
C       1.65094979     -1.28732184      0.42423806
O       2.67311848     -1.82780493      0.02628857
O       1.37873562     -1.12920987      1.73925580
H      -1.42760891      2.03634187     -0.81047064
H      -0.45729976      1.25335812     -2.06407881
H      -1.82090343      0.38919747     -1.33576313
H       0.75052967      1.24726720      0.11434696
H      -1.09118936      1.27182217      1.53705318
H      -1.66734475     -0.14498265      1.02451167
H       0.99071776     -0.69801604     -1.49348411
H      -0.20976257     -1.60071045     -0.55749945
H       0.51905960     -0.64966620      1.86616626
