32
CCCCC(CC)COC(C)=O
C      -3.91287709     -1.72297176      0.85505229
C      -2.95470533     -0.58398318      1.16541566
C      -1.89861429     -0.42583068      0.07008871
C      -0.93228731      0.71782267      0.39351769
C       0.06444142      1.03559760     -0.74672040
C       0.88304279      2.28355744     -0.34288968
C       1.81507953      2.79013589     -1.43461342
C       0.96293622     -0.16478849     -1.09515772
O       1.73469351     -0.54263260      0.05214919
C       2.55847695     -1.60621934     -0.15100598
C       3.31246181     -1.91561996      1.10566546
O       2.67517306     -2.22596264     -1.19844697
H      -4.65933216     -1.81753264      1.64988795
H      -4.44066422     -1.54572868     -0.08747006
H      -3.37828847     -2.67498021      0.77611229
H      -3.52522040      0.34612115      1.27071560
H      -2.46654355     -0.77644045      2.12791274
H      -1.34818967     -1.36783804     -0.02858176
H      -2.39179754     -0.23142427     -0.88978778
H      -1.52102535      1.62034718      0.60393579
H      -0.38634932      0.48205676      1.31579277
H      -0.51645124      1.28782537     -1.64387051
H       0.19016242      3.09612587     -0.09005048
H       1.46809376      2.08042039      0.56225503
H       1.27370769      2.94910409     -2.37237393
H       2.63645185      2.09190783     -1.61905821
H       2.25886694      3.74487856     -1.13400528
H       1.63741402      0.09064163     -1.92012630
H       0.35312263     -1.01454750     -1.42181962
H       2.61197967     -2.17168499      1.90451055
H       3.97098530     -2.77145626      0.93188034
H       3.92525635     -1.05690075      1.39108605
