18
O=C(O)Cc1ccccc1
O       2.24925755     -0.30354462      1.42343851
C       2.41006949     -0.35852023      0.21652116
O       3.64935354     -0.55846636     -0.28540698
C       1.38053456     -0.23087514     -0.87914201
C      -0.02576732     -0.00573193     -0.37848028
C      -0.86497086     -1.09399628     -0.10071573
C      -2.16179601     -0.88457079      0.37122773
C      -2.63019482      0.41189431      0.57499040
C      -1.80154488      1.50054398      0.31056730
C      -0.50426285      1.29414377     -0.16145332
H       4.21297874     -0.62325642      0.51459963
H       1.67020712      0.60305527     -1.52964936
H       1.40626574     -1.14439663     -1.48521668
H      -0.51356631     -2.11308328     -0.24563499
H      -2.80517286     -1.73395551      0.58520543
H      -3.63864094      0.57365041      0.94611993
H      -2.16392993      2.51152151      0.47722950
H       0.13118003      2.15558796     -0.35420024
