33
C=CCn1c(=O)n(CC=C)c(=O)n(CC=C)c1=O
C      -3.93928955      1.67608611      0.59134909
C      -3.41373806      0.47796132      0.30298333
C      -2.68883536      0.15076809     -0.97420893
N      -1.26514560      0.03198811     -0.69575061
C      -0.47603421      1.15250496     -0.85058093
O      -0.93409953      2.22560313     -1.25175734
N       0.85972570      1.00719854     -0.53878725
C       1.72251032      2.17389919     -0.65322310
C       1.66919337      2.94846400      0.63543784
C       2.66485297      3.00141661      1.53025618
C       1.42678628     -0.18553207     -0.14132634
O       2.63458131     -0.29251415      0.08698361
N       0.57067608     -1.26088804     -0.02589849
C       1.12744381     -2.54060475      0.38741532
C       1.62675522     -3.27322090     -0.82819361
C       1.02499862     -4.33996225     -1.37115720
C      -0.78395247     -1.19043031     -0.27541671
O      -1.52908437     -2.16227463     -0.12494598
H      -3.85093727      2.51576380     -0.09283431
H      -4.46082729      1.84502483      1.52844837
H      -3.52586676     -0.33559542      1.01739308
H      -3.07860773     -0.79025062     -1.37897371
H      -2.86652985      0.91909470     -1.73544562
H       2.74925954      1.87057065     -0.88782061
H       1.38922386      2.81824910     -1.47470292
H       0.75777006      3.51343371      0.82276164
H       3.59163161      2.45322643      1.38367301
H       2.56719225      3.58827225      2.43844154
H       0.37436218     -3.13165456      0.92113333
H       1.95999875     -2.38850869      1.08381485
H       2.55391460     -2.90780488     -1.26597623
H       0.09878947     -4.73844651     -0.96570123
H       1.44328205     -4.83183773     -2.24397325
