17
O=[N+]([O-])c1cc(C(F)(F)F)ccc1Cl
O       3.25043207     -1.20465493     -0.75235388
N       2.51415182     -1.10026703      0.23608709
O       2.65839660     -1.68458425      1.31745343
C       1.34293373     -0.26670372      0.10048111
C       0.09115776     -0.90015064      0.06376801
C      -1.07173153     -0.12788512     -0.07919892
C      -2.43520678     -0.78239796     -0.10120582
F      -3.34246974     -0.09295130     -0.84471421
F      -2.96993233     -0.89315961      1.14374135
F      -2.40701136     -2.04170707     -0.61581621
C      -0.94803441      1.26970870     -0.16401493
C       0.31000840      1.88552472     -0.11825066
C       1.46968519      1.11825865      0.01573507
Cl      2.98063440      1.94413784      0.10205166
H       0.02191653     -1.98539124      0.14357880
H      -1.83873936      1.89151730     -0.26485268
H       0.37380901      2.97070565     -0.18248923
