57
CCC(=O)N(c1ccccc1)C1(COC)CCN(CCc2cccs2)CC1
C      -4.91596995     -2.24654683     -1.04488518
C      -3.80274943     -1.20866046     -1.09991427
C      -2.87831162     -1.27183397      0.11971073
O      -3.01639729     -2.17881267      0.94609843
N      -1.91453350     -0.25278658      0.26378024
C      -1.87603247      0.81683279     -0.67962164
C      -1.34044224      0.58162409     -1.95805223
C      -1.28826875      1.61377568     -2.89854623
C      -1.78069427      2.88091548     -2.57156230
C      -2.33238529      3.11628890     -1.30767843
C      -2.38354273      2.08778938     -0.36293710
C      -1.11656613     -0.13509151      1.56363208
C      -2.11853875      0.13430255      2.73934833
O      -1.44041779      0.38199311      3.97795563
C      -2.27417106      1.07948179      4.91719111
C      -0.03583398      0.99643189      1.57544785
C       1.14941173      0.74941686      0.63629040
N       1.79925081     -0.54745076      0.88081093
C       2.88261626     -0.80095938     -0.09432368
C       4.10505053      0.12039001      0.07985429
C       5.16548305     -0.17113361     -0.94654995
C       6.31585680     -0.92421094     -0.79988494
C       7.08783256     -0.97228445     -1.99896847
C       6.49332490     -0.26877689     -3.02532861
S       5.02508516      0.46435960     -2.53701497
C       0.81652484     -1.64318263      0.83104252
C      -0.30767566     -1.43359601      1.85009221
H      -4.51407019     -3.26685140     -1.09297361
H      -5.60114090     -2.10664089     -1.88480174
H      -5.49572973     -2.15725973     -0.12132040
H      -3.21406913     -1.38205609     -2.00624545
H      -4.26922260     -0.21819528     -1.14777158
H      -0.93060402     -0.39643726     -2.21850500
H      -0.85542798      1.43075803     -3.88292904
H      -1.73585844      3.68626713     -3.30244536
H      -2.71994149      4.10352330     -1.05707609
H      -2.82952170      2.29297156      0.61112576
H      -2.80314768     -0.70970744      2.89855664
H      -2.73355337      1.00860919      2.48514773
H      -2.50401321      2.08854992      4.52654628
H      -1.71690059      1.19820336      5.84946953
H      -3.19587691      0.51911792      5.11977701
H      -0.47064521      1.98121577      1.37293202
H       0.38784773      1.08235822      2.58640630
H       1.86503918      1.55994465      0.81743568
H       0.84579487      0.83951382     -0.41010369
H       2.49493915     -0.73127153     -1.11853078
H       3.23555033     -1.83415020      0.02811772
H       3.82423486      1.17644434      0.00252386
H       4.52179075     -0.01844577      1.08656729
H       6.59628449     -1.41359372      0.12943233
H       8.02931050     -1.50412264     -2.10394057
H       6.84714268     -0.14548167     -4.04086408
H       1.31883653     -2.58772204      1.07938710
H       0.40092157     -1.75594723     -0.17877616
H       0.14058132     -1.38087663      2.85222212
H      -0.93645651     -2.32699313      1.86673821
