40
CNCCC(Oc1ccc(C(F)(F)F)cc1)c1ccccc1
C      -2.12746618      4.83136462     -0.49989823
N      -2.61903617      3.46295477     -0.40564745
C      -1.51871696      2.52526706     -0.16594263
C      -2.06539457      1.09680177     -0.08601525
C      -0.95547014      0.08797424      0.26338081
O       0.02160650      0.13550789     -0.78973736
C       1.32217840     -0.15611248     -0.48747823
C       1.76804334     -0.85285178      0.63411713
C       3.13472892     -1.09620142      0.81449036
C       4.07349962     -0.65849829     -0.13147216
C       5.54757862     -0.90336955      0.07703863
F       6.14512280      0.10313408      0.77273746
F       5.80755527     -2.04486957      0.77413816
F       6.24269742     -1.01535846     -1.08949198
C       3.61668132      0.03706809     -1.25885752
C       2.25168910      0.27676021     -1.43577771
C      -1.56036027     -1.30092028      0.41005188
C      -2.02025183     -1.73159084      1.66512077
C      -2.58990131     -2.99684740      1.81774694
C      -2.71196307     -3.84436099      0.71878922
C      -2.26829397     -3.42695421     -0.53414559
C      -1.69932833     -2.16180652     -0.68927744
H      -2.96911357      5.50972134     -0.67058905
H      -1.63817180      5.14105513      0.42920971
H      -1.42544085      4.94954657     -1.33171644
H      -3.09122326      3.21644676     -1.27586933
H      -1.01863500      2.77614465      0.77702369
H      -0.78111687      2.59971944     -0.97355630
H      -2.51680894      0.83519711     -1.05281662
H      -2.86255631      1.04847520      0.66757081
H      -0.50224423      0.40434095      1.21283364
H       1.07998325     -1.23960929      1.37886365
H       3.46315874     -1.64229534      1.69821839
H       4.32123181      0.39212678     -2.00943834
H       1.90979320      0.81005585     -2.32001658
H      -1.94049876     -1.08109454      2.53354730
H      -2.94178646     -3.32043188      2.79393861
H      -3.15599354     -4.82917661      0.83755189
H      -2.36561803     -4.08593838     -1.39299907
H      -1.36015788     -1.85137464     -1.67562577
