36
CC(C(=O)O)c1ccc(N2Cc3ccccc3C2=O)cc1
C       4.89643905     -1.30800455      0.66740439
C       4.32020168     -0.48964017     -0.48999077
C       4.99725608      0.86674430     -0.55591091
O       5.31141820      1.57774074      0.38610393
O       5.23102707      1.27453371     -1.82085355
C       2.81106482     -0.36212044     -0.39958586
C       1.99942229     -0.90060496     -1.40277035
C       0.60356793     -0.79265586     -1.33466212
C      -0.02588981     -0.14425367     -0.26694441
N      -1.44080501     -0.02830479     -0.18710183
C      -2.10248955      0.64987067      0.92083844
C      -3.55095995      0.53012547      0.59206324
C      -4.65849013      0.98851121      1.28420561
C      -5.92465468      0.73622643      0.74373959
C      -6.06734509      0.03655618     -0.46860286
C      -4.94426746     -0.42156030     -1.15894546
C      -3.70476089     -0.15970861     -0.60440158
C      -2.37334459     -0.51967401     -1.10859267
O      -2.22670153     -1.13446700     -2.14930546
C       0.79460233      0.39605752      0.73471000
C       2.19035127      0.28991232      0.67123945
H       5.98039227     -1.42304196      0.55531225
H       4.45035924     -2.30809788      0.70043583
H       4.72031185     -0.83100652      1.63806287
H       4.58658515     -1.02606119     -1.41100092
H       5.62621246      2.16503610     -1.71554476
H       2.43873646     -1.41301374     -2.25670409
H       0.03350205     -1.23306166     -2.14722577
H      -1.79729053      1.70080917      0.94758580
H      -1.87498140      0.13495131      1.85968535
H      -4.55708635      1.52909113      2.22011758
H      -6.81324413      1.08503239      1.26648515
H      -7.06108007     -0.14848551     -0.87054395
H      -5.03252317     -0.96293490     -2.09511929
H       0.37855379      0.91564434      1.59220910
H       2.78591036      0.72985476      1.46999236
