39
CC(C)Oc1cccc(NC(=O)c2ccccc2C(F)(F)F)c1
C       5.53189359     -1.31045288     -1.11259244
C       4.87602337     -0.39063795     -0.08465339
C       5.59627618      0.95424022     -0.05523830
O       3.51974886     -0.20734055     -0.50441045
C       2.55698328      0.03039765      0.43626630
C       2.76525604      0.28214823      1.78930998
C       1.67474976      0.51450917      2.63004824
C       0.37228366      0.50037633      2.12440623
C       0.14784316      0.25531188      0.77124872
N      -1.13079719      0.22958944      0.17558135
C      -2.34836648      0.39620738      0.80410628
O      -2.56701220      0.57237647      1.99340642
C      -3.51586071      0.33816720     -0.11029295
C      -3.52967759      1.17919098     -1.23536549
C      -4.62289133      1.17286013     -2.10017213
C      -5.70654478      0.33768445     -1.84201832
C      -5.69985075     -0.49228206     -0.71867445
C      -4.60263661     -0.50889238      0.16321392
C      -4.61654141     -1.42429614      1.36320024
F      -4.92880056     -0.79395902      2.52514471
F      -5.54941964     -2.41770321      1.23648085
F      -3.44068978     -2.08076433      1.55934455
C       1.24907660      0.02437442     -0.06380806
H       5.47738701     -0.88027175     -2.11894309
H       6.58158625     -1.49808348     -0.86664394
H       5.00643532     -2.27093015     -1.15281908
H       4.93816197     -0.89472435      0.88644504
H       6.65050166      0.83199913      0.21198231
H       5.53753946      1.45025962     -1.03058793
H       5.13614888      1.63519418      0.66729347
H       3.75704366      0.31538482      2.22567303
H       1.83618585      0.71068205      3.68744644
H      -0.44394127      0.68655336      2.81548470
H      -1.14679291      0.02485845     -0.81597812
H      -2.70520675      1.86315802     -1.42673845
H      -4.63719812      1.82983435     -2.96693584
H      -6.56432291      0.33747834     -2.51154173
H      -6.56149068     -1.13358337     -0.53216690
H       1.10691711     -0.16891468     -1.12399761
