21
C1CCCCCC1
C       1.43025408      0.64614010      0.22521063
C       0.45239448      1.39561384     -0.67406044
C      -0.99072276      1.42849603     -0.17941650
C      -1.53342665      0.16309569      0.47828789
C      -1.08358042     -1.14599854     -0.16242959
C       0.25391981     -1.64251213      0.38383318
C       1.47609548     -0.85194890     -0.07053183
H       2.43411267      1.04607682      0.03311361
H       1.21909791      0.83237423      1.28435348
H       0.48230031      0.97725426     -1.68790894
H       0.79129812      2.43481319     -0.77370808
H      -1.63211622      1.68964068     -1.03109672
H      -1.10269890      2.25361509      0.53583245
H      -1.27441933      0.16487631      1.54445836
H      -2.62915118      0.21513541      0.44087520
H      -1.83522949     -1.90958974      0.07534120
H      -1.05744499     -1.06545497     -1.25507922
H       0.39006389     -2.68432436      0.06721599
H       0.22027499     -1.66103844      1.48035636
H       2.35606386     -1.27524112      0.43010149
H       1.63291435     -1.01102346     -1.14474851
