17
CC(C)(N)CO
C       0.65805595     -0.38720848      1.32989147
C      -0.07147755      0.05130934      0.05242024
C      -1.54239199     -0.37083002      0.11652417
N       0.02778985      1.52425600     -0.04154339
C       0.60713971     -0.56249719     -1.19593147
O       1.91261659     -0.00936587     -1.36516694
H       0.18702457      0.03644950      2.22477424
H       1.70775680     -0.07171414      1.32830618
H       0.64138080     -1.47813319      1.43388980
H      -2.04555228      0.06219047      0.98880017
H      -1.63420055     -1.46058461      0.18698805
H      -2.09017764     -0.04923687     -0.77678860
H      -0.39073849      1.94426295      0.78992199
H      -0.53579171      1.85326860     -0.82733264
H       0.03622427     -0.34107683     -2.10462756
H       0.70232024     -1.64972901     -1.10900621
H       1.83002142      0.90863935     -1.03111951
