24
CCc1ccccc1CC
C      -1.12619924     -2.39825174     -0.73038741
C      -0.97528269     -1.46629675      0.46318221
C      -0.75738081     -0.03218974      0.03608942
C      -1.89221959      0.77095144     -0.18308915
C      -1.76843861      2.09875247     -0.58972115
C      -0.50703297      2.64640802     -0.78699034
C       0.62857753      1.86418993     -0.58144169
C       0.52345443      0.52001312     -0.17761995
C       1.80216216     -0.25803275      0.03709700
C       2.32768651     -0.10728002      1.45731575
H      -0.23539782     -2.38295870     -1.36674470
H      -1.28172704     -3.42662100     -0.38918485
H      -1.98396771     -2.11426488     -1.34950894
H      -1.87650700     -1.52718978      1.08660572
H      -0.15871240     -1.80828822      1.10734609
H      -2.88861910      0.35887242     -0.03567691
H      -2.65678309      2.70305351     -0.75124418
H      -0.40481355      3.68145231     -1.10109150
H       1.60821965      2.31121422     -0.73899195
H       1.65735539     -1.31690211     -0.20064180
H       2.56443038      0.09264081     -0.67039555
H       3.25154833     -0.68116168      1.58097120
H       2.54691115      0.94032450      1.69010793
H       1.60273609     -0.46843537      2.19401479
