49
COc1cc(CNC(=O)CCCC/C=C/C(C)C)ccc1O
C       1.56711719     -2.39049086      0.19340662
O       2.92810259     -2.24301229     -0.19780507
C       3.24323522     -1.10697202     -0.89785497
C       2.34444653     -0.13855697     -1.34408051
C       2.80202771      0.99613403     -2.04473679
C       1.81787575      2.04238198     -2.50257720
N       1.14877051      2.62947904     -1.36471096
C      -0.11390968      3.16008960     -1.46583258
O      -0.75583173      3.18674385     -2.50971454
C      -0.64710132      3.70325086     -0.15473662
C      -2.10060788      3.29930708      0.09226468
C      -2.36469562      1.78696589      0.09350145
C      -1.50852614      1.00714762      1.09458309
C      -1.86569628     -0.45406481      1.08910267
C      -2.26164012     -1.12866310      2.18076056
C      -2.64231974     -2.59131928      2.27154298
C      -2.43220906     -3.40728197      0.99335796
C      -4.09705374     -2.71401206      2.73144200
C       4.17277977      1.13868804     -2.30392960
C       5.07495215      0.16876855     -1.86903509
C       4.60389478     -0.93779145     -1.17398978
O       5.51241693     -1.87199879     -0.75528064
H       0.91506977     -2.49069227     -0.68042988
H       1.48553431     -3.31267627      0.77674424
H       1.24802236     -1.56195251      0.83430465
H       1.27762607     -0.23277395     -1.16271279
H       2.32051562      2.85534823     -3.03803118
H       1.08923025      1.59395816     -3.18742434
H       1.70245514      2.81125295     -0.53804105
H      -0.02046372      3.37860437      0.68291888
H      -0.57213191      4.79597617     -0.20021393
H      -2.73998025      3.75785935     -0.67245721
H      -2.41938676      3.71794902      1.05474667
H      -2.20751002      1.38647667     -0.91585651
H      -3.42697255      1.62847859      0.32126644
H      -1.62910023      1.43684098      2.09608248
H      -0.44785032      1.08893276      0.83334346
H      -1.78848364     -0.95645120      0.12794252
H      -2.32412849     -0.58760319      3.12558321
H      -2.00575526     -3.03541760      3.04807585
H      -1.38840525     -3.36537304      0.66502842
H      -3.06570976     -3.04797477      0.17484463
H      -2.67878916     -4.46090770      1.16529083
H      -4.78628153     -2.28544006      1.99491109
H      -4.25632543     -2.19502104      3.68337009
H      -4.37089848     -3.76443727      2.87858009
H       4.54783888      2.00366472     -2.84666539
H       6.13733267      0.27269735     -2.06876857
H       4.97851987     -2.55725922     -0.30811036
