81
CCc1c2c(nc3ccc(OC(=O)N4CCC(N5CCCCC5)CC4)cc13)-c1cc3c(c(=O)n1C2)COC(=O)[C@]3(O)CC
C       1.70577837     -3.68315889     -1.66280999
C       2.05379460     -3.40614631     -0.20778797
C       2.41052477     -1.95777980      0.02483626
C       3.73998808     -1.55985436     -0.02105508
C       4.05304956     -0.22058756      0.17977531
N       3.18515123      0.76352613      0.42888063
C       1.89430751      0.40131240      0.46307883
C       0.96691781      1.40400728      0.70967217
C      -0.40203979      1.14635210      0.75831792
C      -0.84816673     -0.14677624      0.54024654
O      -2.22120689     -0.39184319      0.62827525
C      -2.85202730     -0.64102499     -0.59019093
O      -2.27195906     -0.72412018     -1.66838854
N      -4.22543358     -0.77755176     -0.44300898
C      -4.87118865     -0.75132903      0.85992478
C      -6.39664936     -0.81501054      0.77504598
C      -6.91524343      0.15267663     -0.30905667
N      -8.39477072      0.21438804     -0.41591133
C      -8.87186413      1.23535765     -1.37062353
C      -9.46218544      2.47977296     -0.70745322
C     -10.65778788      2.12717796      0.17310585
C     -10.54092196      0.72412198      0.76284348
C      -9.07983871      0.28979912      0.88603261
C      -6.28175482     -0.21736096     -1.67869053
C      -5.05219721     -1.11893720     -1.58473973
C       0.04859313     -1.18938581      0.31494352
C       1.43924141     -0.94222280      0.26448040
C       5.49919249     -0.07387542      0.07410438
C       6.27086063      1.01097060      0.17884145
C       7.71414307      0.87128355      0.02810118
C       8.25280460     -0.33507259     -0.22583928
C       7.38131771     -1.55005783     -0.34712313
O       7.86401597     -2.65562874     -0.56740221
N       6.04096377     -1.31669672     -0.18077341
C       4.99843863     -2.34334025     -0.26619636
C       9.71236850     -0.56688194     -0.37988814
O      10.52366322      0.62597625     -0.40792303
C      10.01689059      1.87435576     -0.36550417
O      10.70203132      2.84049130     -0.70688126
C       8.58948563      2.08254983      0.18629098
O       8.00791011      3.14879405     -0.58994519
C       8.68010575      2.58872161      1.64286282
C       9.20511725      1.57545127      2.65202871
H       1.46811799     -4.74314415     -1.79861335
H       0.83859126     -3.09850000     -1.98733697
H       2.54267025     -3.43621571     -2.32503879
H       1.22818935     -3.70790372      0.44631726
H       2.89166074     -4.04939185      0.08772160
H       1.32232166      2.42026280      0.86630853
H      -1.10338714      1.95092306      0.95516497
H      -4.56403500      0.17048875      1.36961089
H      -4.49136050     -1.59400300      1.44957862
H      -6.79290923     -0.57352770      1.76716417
H      -6.71743123     -1.83897527      0.54385017
H      -6.55847515      1.15619395     -0.03398090
H      -9.64851681      0.76805938     -1.99118715
H      -8.09266089      1.55257567     -2.07207596
H      -8.68930150      2.97270562     -0.10319522
H      -9.76999238      3.20426689     -1.46948791
H     -11.58646861      2.19179883     -0.40649935
H     -10.74227461      2.86950761      0.97548030
H     -11.02904964      0.69485858      1.74451538
H     -11.08234568      0.01198988      0.12555967
H      -9.05998236     -0.69732630      1.36175576
H      -8.56654980      0.99366266      1.55532390
H      -5.99532541      0.71302645     -2.18690327
H      -7.00886164     -0.71458441     -2.33370338
H      -5.35618782     -2.16583178     -1.46237693
H      -4.48420510     -1.06510152     -2.51932721
H      -0.35200947     -2.18635326      0.16305833
H       5.83726192      1.99015828      0.36253691
H       5.02275701     -2.79364518     -1.26340131
H       5.17934730     -3.09707159      0.50642912
H       9.91789257     -1.09753845     -1.31648414
H      10.08540635     -1.18441248      0.44466171
H       8.71241962      3.82006674     -0.70157571
H       7.69339261      2.94015111      1.97364559
H       9.32309819      3.47857165      1.67840473
H       9.25168234      2.03294550      3.64582949
H       8.55185375      0.70087472      2.72378637
H      10.21324699      1.23799491      2.39384822
