16
COCCOC
C      -2.98684479      0.07519364      0.26449796
O      -1.65529798      0.07831348      0.76237961
C      -0.70412589     -0.06886828     -0.29186490
C       0.70412468     -0.05945173      0.29186698
O       1.65529911     -0.20656391     -0.76238493
C       2.98684465     -0.20346561     -0.26449980
H      -3.14003990      0.91083236     -0.42519217
H      -3.67063127      0.19025556      1.10975002
H      -3.20652599     -0.87268541     -0.23619822
H      -0.87823289     -1.01043753     -0.82649870
H      -0.81264735      0.75010391     -1.01311735
H       0.87821690      0.88209738      0.82654121
H       0.81266235     -0.87845427      1.01308359
H       3.14006536     -1.03920407      0.42506436
H       3.67063794     -0.31837485     -1.10976754
H       3.20649506      0.74434723      0.23633988
