47
Cc1cc2nc3c(=O)[nH]c(=O)nc-3n(C[C@H](O)[C@H](O)[C@H](O)CO)c2cc1C
C      -4.45994340      2.92799084      0.08635700
C      -3.39587261      1.86701380      0.13343792
C      -3.67962597      0.58635678     -0.35623929
C      -2.72403178     -0.43687343     -0.33597469
N      -3.11893329     -1.67877764     -0.86596040
C      -2.26412724     -2.65558473     -0.84566746
C      -2.64171482     -3.99355800     -1.42062104
O      -3.79316750     -4.30460163     -1.67621656
N      -1.58125840     -4.83246606     -1.56502353
C      -0.51005391     -4.76571270     -0.72354287
O       0.04781797     -5.81229836     -0.40900854
N      -0.10422874     -3.55300345     -0.24570950
C      -0.87304861     -2.50632628     -0.27662030
N      -0.49327213     -1.25472929      0.19823249
C       0.91475046     -0.99932135      0.55633069
C       1.68119497     -0.34576412     -0.61604250
O       1.69282199     -1.24522900     -1.74795602
C       3.15567960     -0.03811988     -0.27697735
O       3.86121044     -1.26748021     -0.05243588
C       3.33990240      0.88903969      0.93629550
O       2.46519529      2.01895902      0.82686369
C       4.78293055      1.39676589      1.05347596
O       5.02386932      2.33322832     -0.00297780
C      -1.43152120     -0.19775520      0.18438206
C      -1.15941605      1.09152494      0.67624404
C      -2.11784432      2.12399732      0.65284715
C      -1.75192829      3.47887680      1.19789765
H      -5.39994474      2.53774622     -0.31822451
H      -4.66791993      3.30446242      1.09290375
H      -4.14228384      3.75585726     -0.55533211
H      -4.66301370      0.36321419     -0.76665093
H      -1.83486727     -5.77955636     -1.80463953
H       1.40404742     -1.94494371      0.82005682
H       0.96735432     -0.39685139      1.46818722
H       1.17267244      0.56898097     -0.93929797
H       1.86011976     -0.70274757     -2.53962613
H       3.60746763      0.41694367     -1.16719538
H       3.51603576     -1.89875265     -0.71836289
H       3.09562125      0.34998546      1.85810894
H       2.97805819      2.68417864      0.31880416
H       5.51321025      0.58426741      0.99736071
H       4.91437563      1.93771914      1.99608310
H       5.96459046      2.58135160      0.05959934
H      -0.18683545      1.33050403      1.09783098
H      -0.70511580      3.51661263      1.51765589
H      -2.37278162      3.71743222      2.06718352
H      -1.88617548      4.24744375      0.43016462
