40
CC(CN1c2ccccc2Sc2ccccc21)N(C)C
C       1.67012108     -0.95298337     -1.38273549
C       1.65221257      0.02521458     -0.19919347
C       0.51496594     -0.30370415      0.82588765
N      -0.84878627     -0.01101251      0.30139225
C      -1.27284595      1.35688559      0.36721547
C      -0.43863296      2.39198714      0.85817369
C      -0.84363705      3.73184565      0.92596762
C      -2.10856588      4.09366563      0.50233737
C      -2.95853566      3.11091972      0.01264794
C      -2.55477855      1.76010686     -0.05769346
S      -3.77766353      0.65519452     -0.71030226
C      -2.95686880     -0.91597322     -0.64155968
C      -3.73247249     -2.00065454     -1.10582899
C      -3.22789198     -3.29327476     -1.12107992
C      -1.93882339     -3.50979973     -0.67332402
C      -1.16588325     -2.43497630     -0.21093692
C      -1.63950326     -1.10188834     -0.17166566
N       2.95889550      0.15539659      0.50320964
C       3.53944710     -1.11325711      0.93991616
C       3.93341780      0.91722117     -0.27945414
H       1.80501989     -1.98900650     -1.05770647
H       2.47169101     -0.71478130     -2.08890864
H       0.73403382     -0.89441855     -1.94709795
H       1.42350152      1.00929976     -0.62630055
H       0.67283857      0.25669004      1.75726281
H       0.61825847     -1.32858214      1.19082816
H       0.57242130      2.20223520      1.20536781
H      -0.16024174      4.48426019      1.31155590
H      -2.43401896      5.12860737      0.55039516
H      -3.95328970      3.40284981     -0.31948455
H      -4.74762013     -1.83493510     -1.46247481
H      -3.83621687     -4.11756543     -1.48129162
H      -1.52090452     -4.51341618     -0.68046297
H      -0.16601098     -2.70433032      0.10612859
H       3.85065453     -1.74531050      0.10124825
H       2.84108620     -1.68071340      1.56253172
H       4.42184300     -0.92877174      1.56358023
H       3.52970655      1.89723816     -0.55681784
H       4.83146550      1.11245793      0.31775061
H       4.24161159      0.39727928     -1.19237248
