19
N[C@@H](COP(=O)(O)O)C(=O)O
N      -1.06107564      0.00097226      1.47742521
C      -1.05292619      0.34041674      0.01452042
C      -0.29170782     -0.69095601     -0.82774264
O       0.93849173     -1.08183504     -0.22458246
P       2.09978761      0.01049429     -0.10296409
O       2.32297922      0.90502140     -1.26741394
O       1.76562432      0.77082646      1.26212432
O       3.36765654     -0.85564948      0.32206928
C      -2.50313448      0.42979652     -0.46892198
O      -2.85827578      0.45560820     -1.63601514
O      -3.36515581      0.49283516      0.58042099
H      -1.05142363     -1.02342822      1.55690170
H      -0.11969193      0.25040315      1.82478141
H      -0.60994592      1.33681919     -0.08856070
H      -0.88838187     -1.60251538     -0.94830022
H      -0.09574140     -0.30468217     -1.83439966
H       2.44400252      1.44781841      1.44633568
H       3.75814995     -1.31702869     -0.44261311
H      -2.79923143      0.43508321      1.39371508
