22
Clc1ccc(-c2ccccc2)cc1
Cl      5.20938896      0.56118937     -0.38136301
C       3.50029936      0.37707503     -0.31624107
C       2.67813582      1.32236391     -0.92266258
C       1.28884450      1.17133203     -0.86818394
C       0.70375524      0.07581310     -0.20968275
C      -0.75887901     -0.08175156     -0.15395293
C      -1.37620054     -1.26826502     -0.58415985
C      -2.76474089     -1.41839753     -0.53211387
C      -3.56020770     -0.38352862     -0.04721973
C      -2.96886353      0.80073624      0.38483568
C      -1.58027082      0.94977444      0.33107017
C       1.55628896     -0.86483563      0.39403979
C       2.94598726     -0.71649678      0.34262861
H       3.10713989      2.17572325     -1.44064979
H       0.66006192      1.91325117     -1.35727736
H      -0.77498500     -2.08561671     -0.97744895
H      -3.22316866     -2.34299479     -0.87314095
H      -4.64000563     -0.49985117     -0.00607873
H      -3.58646175      1.60941771      0.76685946
H      -1.13880144      1.87945140      0.68463103
H       1.13829571     -1.71952095      0.92301836
H       3.58438736     -1.45486889      0.81994280
