87
CCCCCCOC(=O)NC(=N)c1ccc(NCc2nc3cc(C(=O)N(CCC(=O)OCC)c4ccccn4)ccc3n2C)cc1
C      13.50777817      1.01374508      0.82315993
C      13.53964746     -0.17740085     -0.12175077
C      12.57021183     -0.04718388     -1.29923006
C      11.09889660     -0.07870076     -0.87987591
C      10.17469326      0.00764222     -2.09937897
C       8.69971798     -0.08850508     -1.71638536
O       8.36471446      1.01051991     -0.85931821
C       7.07414386      1.01754534     -0.43126893
O       6.23429523      0.19657499     -0.76372941
N       6.90464079      2.08154540      0.41910496
C       5.82538617      2.44945071      1.18076897
N       6.02411086      3.40533454      2.02292664
C       4.52581351      1.78013924      1.03414531
C       3.76139981      1.97909961     -0.11153809
C       2.49711958      1.38982058     -0.20076154
C       1.96767625      0.62377988      0.85147098
N       0.72290364      0.01619618      0.65700335
C       0.01141027     -0.57427631      1.79144854
C      -1.34329941     -1.11111888      1.43050934
N      -2.48837373     -0.72179342      1.95833975
C      -3.46145222     -1.44686214      1.31957667
C      -4.84923868     -1.41829324      1.50802786
C      -5.64989447     -2.24419997      0.70398438
C      -7.12552847     -2.28895650      0.89746867
O      -7.65365019     -3.40385326      0.92453901
N      -7.84033760     -1.10790063      1.15887749
C      -9.17836372     -1.27580781      1.73722531
C     -10.26550675     -1.54407705      0.69929008
C     -10.78694870     -0.25445495      0.13167889
O     -11.21357291      0.66958890      0.81391375
O     -10.71394623     -0.25814325     -1.22565164
C     -11.12857730      0.96584786     -1.84262597
C     -10.88751878      0.84846604     -3.33442889
C      -7.48836019      0.13469225      0.54656001
C      -7.99985320      1.34509674      1.01226521
C      -7.65761501      2.53368674      0.36626599
C      -6.81017970      2.49570320     -0.72893297
C      -6.33959353      1.26250708     -1.13167768
N      -6.66335362      0.10071838     -0.52367494
C      -5.07116000     -3.11036007     -0.23321785
C      -3.68433576     -3.15380971     -0.42327163
C      -2.90651421     -2.30554022      0.37474373
N      -1.55184239     -2.08406205      0.47540428
C      -0.52791750     -2.74527414     -0.29927715
C       2.77442897      0.41206091      1.97699732
C       4.03721449      1.00569756      2.08423182
H      13.67125469      1.95059521      0.28107355
H      12.55129884      1.07979230      1.35074453
H      14.29639950      0.91589394      1.57665201
H      14.55621770     -0.27773313     -0.52070753
H      13.32703757     -1.09467302      0.43912264
H      12.76096080     -0.87443816     -1.99368723
H      12.78058524      0.87925825     -1.84706683
H      10.88579096      0.75685436     -0.20490306
H      10.89377978     -1.00331359     -0.32719289
H      10.35425202      0.96194416     -2.61056578
H      10.41216840     -0.79683201     -2.80437261
H       8.50738801     -1.03489335     -1.19707318
H       8.08676878     -0.03955402     -2.62383145
H       7.74109420      2.61255478      0.60877067
H       5.15672723      3.61271863      2.53402828
H       4.14232452      2.57602449     -0.93544246
H       1.92235794      1.52895312     -1.11369248
H       0.10487844      0.62112890      0.11784029
H      -0.11982158      0.18287460      2.57451944
H       0.59462584     -1.39785196      2.22050427
H      -5.27431467     -0.76493821      2.26008278
H      -9.42342048     -0.43839215      2.39623040
H      -9.13439163     -2.14848032      2.40266593
H      -9.90288406     -2.19474754     -0.10298239
H     -11.11835343     -2.04846800      1.16630588
H     -12.19427423      1.13079444     -1.64975017
H     -10.54650607      1.80255170     -1.44063426
H     -11.17390644      1.76960045     -3.84961359
H      -9.83205721      0.64069850     -3.53937638
H     -11.46268403      0.01564515     -3.75233824
H      -8.64687829      1.40760974      1.87884718
H      -8.05050963      3.48094195      0.72694899
H      -6.51965394      3.40018940     -1.24907992
H      -5.66746559      1.16682056     -1.97920572
H      -5.71120269     -3.76184548     -0.82620186
H      -3.24654341     -3.82196981     -1.15682694
H      -0.29340925     -2.11832767     -1.16352723
H      -0.89152754     -3.72130001     -0.62990893
H       0.35911532     -2.89726714      0.32048370
H       2.43885567     -0.20976646      2.80115278
H       4.63665379      0.84646219      2.97610801
