10
Nc1ncn[nH]1
N      -1.69462648     -0.32790903     -0.33086075
C      -0.37342620     -0.15496836     -0.16738941
N       0.59148329     -0.96769244     -0.51087304
C       1.71562991     -0.30115123     -0.10999808
N       1.50514564      0.88448041      0.46877779
N       0.16385638      0.96283243      0.40858378
H      -2.34855694      0.08433018      0.32540630
H      -1.96555387     -1.27178205     -0.59782482
H       2.71562197     -0.69374949     -0.24284414
H      -0.30957369      1.78560958      0.75702237
