27
COP(=S)(OC)Oc1c(Cl)cc(C)cc1Cl
C      -3.32266965     -1.86336906      0.66727204
O      -3.31271109     -0.47542446      0.40077276
P      -1.99198881      0.17172069     -0.28316549
S      -1.66547524     -0.33420148     -2.13162915
O      -2.27912552      1.74309419     -0.02473505
C      -3.37299179      2.35150675     -0.67989478
O      -0.86044066     -0.14967900      0.83824487
C       0.47377332     -0.13549639      0.52305763
C       1.21851788      1.04531159      0.55110428
Cl      0.53069010      2.54959733      1.03549890
C       2.57764061      1.02792498      0.21807527
C       3.21068820     -0.16931694     -0.13815510
C       4.67472885     -0.18810451     -0.46593351
C       2.47249925     -1.35791350     -0.11640699
C       1.11500489     -1.34108901      0.21621395
Cl      0.26675358     -2.84563901      0.25738268
H      -3.08049961     -2.43598174     -0.23107732
H      -2.61258819     -2.09653363      1.46439567
H      -4.32463115     -2.14570898      1.00062065
H      -3.57197361      3.31454645     -0.20267527
H      -3.12915048      2.52756235     -1.73053610
H      -4.27072974      1.73241059     -0.60417974
H       3.14928630      1.95429443      0.24303644
H       4.90592342     -0.99115560     -1.17362795
H       4.98222111      0.75381070     -0.93220804
H       5.26033618     -0.33992333      0.44592011
H       2.95691186     -2.30224341     -0.35799428
