22
C=CCCCCC=C
C      -3.46220778     -1.48555082     -0.78244273
C      -2.77592233     -0.77793313      0.12358322
C      -1.80406338      0.31386029     -0.22112756
C      -0.39172364     -0.02488955      0.26169905
C       0.59271574      1.09914245     -0.07808984
C       2.00623013      0.83994803      0.45226291
C       2.68269237     -0.32021124     -0.22038116
C       3.11599722     -1.41188383      0.42242239
H      -3.34959810     -1.31136455     -1.84797922
H      -4.15510812     -2.26153181     -0.47185194
H      -2.92615110     -0.98802930      1.18074172
H      -2.14574950      1.24280562      0.25088846
H      -1.79069274      0.49272729     -1.30326767
H      -0.06439392     -0.96348020     -0.20181260
H      -0.39941481     -0.18748585      1.34696618
H       0.62383206      1.24727978     -1.16493491
H       0.22884195      2.03790613      0.35798839
H       1.97001808      0.69664565      1.53914016
H       2.61650321      1.73400221      0.27563808
H       2.83067774     -0.24800972     -1.29607170
H       3.60256574     -2.21796420     -0.11816934
H       2.99495119     -1.52913289      1.49479808
