29
CCC(C)c1cc([N+](=O)[O-])cc([N+](=O)[O-])c1O
C       2.10256942      0.52471786     -1.97952559
C       2.48985389      0.29804119     -0.52319569
C       1.58091443     -0.72430547      0.19132212
C       2.13344448     -1.04576899      1.58645692
C       0.12597645     -0.26558914      0.28448036
C      -0.19433863      0.91933223      0.97679649
C      -1.52256759      1.35779608      1.07106190
N      -1.82817826      2.59829663      1.79853610
O      -0.88271911      3.21727755      2.30484269
O      -3.01432365      2.94821151      1.86006984
C      -2.55811872      0.62755790      0.48030203
C      -2.25050762     -0.55479073     -0.21101916
N      -3.35161186     -1.30752913     -0.82480388
O      -4.50010517     -0.86349270     -0.69981602
O      -3.06334161     -2.34893383     -1.43512691
C      -0.91810128     -1.00337462     -0.31116422
O      -0.55337524     -2.14733577     -0.97287978
H       2.82292041      1.19537446     -2.45889734
H       1.11298180      0.98325593     -2.06646994
H       2.09722184     -0.41829898     -2.53533821
H       3.52420797     -0.06789839     -0.50034972
H       2.49056143      1.26070955      0.00143327
H       1.64114557     -1.65744482     -0.38132991
H       3.14075247     -1.47003239      1.51250930
H       2.19591209     -0.15435903      2.21987253
H       1.49985562     -1.77800617      2.09944480
H       0.60337182      1.49812699      1.44236652
H      -3.58799156      0.97441869      0.55749446
H      -1.33640936     -2.59595640     -1.35697016
