43
C1CCN2C[C@@H]3C[C@@H](CN4CCCC[C@H]34)[C@@H]2C1
C      -4.17165531     -0.39255984      0.24861628
C      -3.67421981      0.56167723      1.32146147
C      -2.56812466      1.47745370      0.78390382
N      -1.71937017      0.84850316     -0.23916354
C      -0.41360414      1.51489651     -0.33108113
C       0.54673677      0.88012203     -1.37255333
C      -0.15091316     -0.26769145     -2.11134381
C      -0.58822587     -1.27200635     -1.04332153
C       0.66737134     -1.78818800     -0.30137169
N       1.50876067     -0.72579179      0.27823855
C       2.71528842     -1.30414658      0.88605119
C       3.58419903     -0.23123123      1.54103650
C       3.96112102      0.85663555      0.54366055
C       2.70875979      1.42748808     -0.11361189
C       1.83927650      0.31105876     -0.72349287
C      -1.62014795     -0.61160754     -0.07909077
C      -3.02221411     -1.20815046     -0.35161783
H      -4.93599974     -1.06401005      0.65551832
H      -4.65708073      0.18546191     -0.54807350
H      -3.28996758     -0.02053264      2.16877283
H      -4.50361133      1.16697410      1.70426750
H      -3.02668492      2.36904343      0.33949154
H      -1.97829969      1.81967596      1.64400928
H       0.04860524      1.55200077      0.66148131
H      -0.58059968      2.55835129     -0.62832952
H       0.82762372      1.64342147     -2.10957989
H      -1.01033209      0.09679316     -2.68742353
H       0.53042756     -0.73864713     -2.83057566
H      -1.04277472     -2.13521029     -1.54626090
H       0.34630250     -2.47293016      0.49376807
H       1.26016768     -2.38444582     -1.00914226
H       2.42872868     -2.02896021      1.65769731
H       3.30757271     -1.84463516      0.13593481
H       4.49270826     -0.68950512      1.94788563
H       3.04479619      0.21539153      2.38593410
H       4.62332237      0.43962512     -0.22487148
H       4.51630090      1.65434591      1.04927924
H       3.00298406      2.13746823     -0.89578546
H       2.15331987      1.99977788      0.63763451
H       2.43543355     -0.15370725     -1.52377084
H      -1.34147143     -0.85045823      0.95672373
H      -3.05163517     -2.22550779      0.05924707
H      -3.20287458     -1.30624270     -1.43015219
