31
CCCN(CCC)CCC
C      -1.10172494      2.83454762     -0.45536522
C      -0.87407958      1.91550667     -1.64768941
C       0.26386956      0.90828537     -1.42166745
N       0.04731565      0.03175422     -0.25297092
C      -0.92265973     -1.03492552     -0.57095051
C      -1.59196851     -1.58459271      0.69599142
C      -2.63632349     -2.63790253      0.35499202
C       1.32601783     -0.54282047      0.21162969
C       2.11172301      0.45539049      1.07256153
C       3.39728249     -0.16466418      1.60095811
H      -1.86579888      3.58052232     -0.69628208
H      -0.18254064      3.36556964     -0.18811284
H      -1.44538083      2.27578671      0.42060888
H      -1.81072539      1.40571375     -1.89592915
H      -0.61995601      2.53122797     -2.51921080
H       0.41294854      0.30991277     -2.33014040
H       1.17943210      1.49801537     -1.29732605
H      -1.72517375     -0.64699621     -1.20834544
H      -0.44339337     -1.84272568     -1.13952376
H      -2.07644317     -0.76686101      1.24338664
H      -0.85619984     -2.03290600      1.37145031
H      -2.18187006     -3.48435269     -0.16968855
H      -3.42289669     -2.22008495     -0.28144940
H      -3.10508986     -3.01618070      1.26885515
H       1.93232902     -0.88539953     -0.63726895
H       1.14760095     -1.42695102      0.83421152
H       1.49628549      0.77725247      1.92146740
H       2.36970883      1.35398248      0.50281718
H       4.04999504     -0.47351765      0.77823560
H       3.94269019      0.55935482      2.21439838
H       3.18502601     -1.04194182      2.22035710
