15
O=c1[nH]sc2ccccc12
O       2.44799673      1.65242984      0.57130060
C       1.93792535      0.57365237      0.32213952
N       2.60726491     -0.62268218      0.18635191
S       1.64017832     -1.97742499     -0.16368965
C       0.18686199     -0.96359407     -0.14944861
C      -1.12531612     -1.35074159     -0.36734869
C      -2.12798853     -0.37593295     -0.30874149
C      -1.81149396      0.96526799     -0.03511498
C      -0.48738040      1.34957577      0.18363876
C       0.49258424      0.36943298      0.12150055
H       3.61218813     -0.66683614      0.29288761
H      -1.37577453     -2.38560330     -0.57918935
H      -3.16533930     -0.65891775     -0.47691666
H      -2.60441432      1.70925066      0.00646664
H      -0.22729252      2.38212336      0.39616384
