72
CCCCOCCOCCOC(=O)CCCCC(=O)OCCOCCOCCCC
C      13.32452927     -0.95569677     -0.99476251
C      11.95705247     -0.66213221     -0.39327654
C      11.44209003     -1.84525823      0.43000296
C      10.08982803     -1.55101513      1.07156201
O       9.10221724     -1.44685124      0.04909241
C       7.79552666     -1.19534663      0.56534009
C       7.51754205      0.30114122      0.68594847
O       6.19536290      0.48300912      1.19497419
C       5.67542468      1.79832817      0.96988131
C       4.99556577      1.88978187     -0.40122540
O       3.89788066      0.96076483     -0.48554435
C       2.71680628      1.38948491      0.04039003
O       2.51982477      2.49871843      0.51616603
C       1.70445471      0.26494968     -0.01348162
C       0.26206830      0.73557589      0.17159697
C      -0.27407301      1.48135299     -1.05849736
C      -1.73308256      1.90500867     -0.89563071
C      -2.67669091      0.72519211     -0.82929108
O      -2.50770463     -0.34476750     -1.39547421
O      -3.74132232      1.03369623     -0.04362464
C      -4.69044998     -0.02321254      0.16612566
C      -5.64797565     -0.19319280     -1.01350670
O      -6.37685204      1.02308770     -1.21135974
C      -7.69378484      0.81065008     -1.71908882
C      -8.68409786      0.71521391     -0.55798132
O     -10.00835120      0.52234017     -1.05554893
C     -10.97694850      0.39409101     -0.01233135
C     -11.03133069     -1.04070424      0.50560640
C     -12.06487984     -1.20316519      1.61562631
C     -12.13560558     -2.64427544      2.09948770
H      14.06039097     -1.16745663     -0.21234481
H      13.68074381     -0.09309034     -1.56840673
H      13.27727901     -1.81524339     -1.67278181
H      12.03379629      0.22526062      0.24906269
H      11.25418534     -0.42259759     -1.20023611
H      11.35674256     -2.72442276     -0.22098647
H      12.16366979     -2.08365260      1.21828258
H       9.82580812     -2.37495139      1.74506245
H      10.13448930     -0.62298933      1.65122950
H       7.07819983     -1.62414838     -0.14567169
H       7.62977529     -1.71514135      1.51695668
H       8.23079668      0.77715981      1.36786243
H       7.63678015      0.77311620     -0.29734444
H       6.47069753      2.54675465      1.06858011
H       4.94255298      1.97795973      1.76190154
H       4.65678530      2.91250197     -0.61030746
H       5.69219749      1.60687149     -1.19766750
H       1.80074969     -0.25751881     -0.97201556
H       1.96111914     -0.43337480      0.79091355
H       0.18210702      1.37733886      1.05513703
H      -0.36053631     -0.14468666      0.36582751
H       0.32835876      2.38058825     -1.22620869
H      -0.16570786      0.85278302     -1.94803779
H      -2.03903215      2.52486234     -1.74655317
H      -1.83225969      2.50399588      0.01855770
H      -4.17075009     -0.96161795      0.38938048
H      -5.26070739      0.25532969      1.06089813
H      -5.10853056     -0.41623880     -1.94242065
H      -6.32521417     -1.02906539     -0.79229502
H      -7.95463776      1.66913439     -2.34918524
H      -7.75105992     -0.08043267     -2.36034417
H      -8.39365107     -0.10925730      0.10167474
H      -8.63402058      1.64225325      0.02976961
H     -11.94555683      0.66820207     -0.44332916
H     -10.77110868      1.10862615      0.79347356
H     -11.25926691     -1.71652028     -0.32958528
H     -10.04735340     -1.34733817      0.87757963
H     -13.05031987     -0.90039640      1.25137570
H     -11.80875532     -0.55445942      2.46244117
H     -12.45584415     -3.31016849      1.28993569
H     -11.15908394     -2.98534530      2.46077513
H     -12.85685263     -2.73939321      2.91876260
