23
S=P(N1CC1)(N1CC1)N1CC1
S       0.77338775      0.04262345     -2.35976215
P       0.22018654      0.17939009     -0.47146464
N      -0.40507355      1.68197155     -0.10788336
C      -1.80498869      2.00129181     -0.33977985
C      -1.24472912      1.90816328      1.05918263
N      -0.90264037     -0.93181529      0.07696387
C      -1.83121598     -1.61433643     -0.81180614
C      -0.69258873     -2.35562050     -0.16018744
N       1.40778239      0.03008065      0.69402173
C       2.60051209     -0.77508089      0.48369119
C       2.67727642      0.73037048      0.54839383
H      -2.00144981      2.98460149     -0.74786584
H      -2.46220934      1.21588124     -0.68717899
H      -1.05939039      2.82745891      1.59968834
H      -1.50927664      1.05684011      1.67277138
H      -2.82911943     -1.77359944     -0.42255179
H      -1.78007191     -1.41782595     -1.87467056
H       0.14672416     -2.65461842     -0.77518322
H      -0.91470922     -3.00840176      0.67417520
H       2.94656144     -1.33913505      1.34062523
H       2.74319980     -1.25789063     -0.47399428
H       2.85402127      1.28269956     -0.36589703
H       3.06781134      1.18695174      1.44871189
