8
CCI
C      -0.80292738      0.07862396     -0.00453781
C       0.67408190     -0.27518856     -0.03307625
I       1.87566079      1.45370755      0.29932614
H      -1.09486787      0.49991391      0.96336554
H      -1.05486535      0.80769223     -0.78205823
H      -1.40776704     -0.81762305     -0.17643904
H       0.92524433     -0.72043865     -1.00166475
H       0.88544061     -1.02668738      0.73508441
