27
Cc1ccc2c(ccc3ccccc32)c1
C      -4.42331031      0.24063351      0.54140861
C      -2.94379892      0.04065570      0.40584673
C      -2.39899708     -1.23942860      0.37678787
C      -1.02000913     -1.41750979      0.21826748
C      -0.12673200     -0.32756554      0.07132599
C      -0.70139758      0.96830965      0.08776459
C       0.11404958      2.09376752     -0.05740578
C       1.49072017      1.96324548     -0.21709058
C       2.09312925      0.70295413     -0.23667150
C       3.48578692      0.60509775     -0.39921351
C       4.12155763     -0.63315001     -0.42388067
C       3.37003518     -1.78977382     -0.28591253
C       1.98376354     -1.70527719     -0.12362287
C       1.29875766     -0.46376212     -0.09333666
C      -2.08912075      1.13532647      0.24778773
H      -4.64402393      1.17392982      1.07006466
H      -4.87736341     -0.57290450      1.11697379
H      -4.88863530      0.27531532     -0.44844962
H      -3.03841218     -2.11345898      0.47783599
H      -0.65512384     -2.44044224      0.20896015
H      -0.31603156      3.09307426     -0.04711205
H       2.09000826      2.86464504     -0.32639835
H       4.09121415      1.50262831     -0.50888041
H       5.19902509     -0.69137826     -0.55030928
H       3.85578192     -2.76183221     -0.30346820
H       1.44277271     -2.64128228     -0.01945839
H      -2.51364607      2.13818258      0.25067703
