35
CN(C)C(=O)C(c1ccccc1)c1ccccc1
C      -1.00915282     -2.53039214      1.47633143
N      -1.73548533     -2.02159430      0.32090750
C      -2.55346098     -2.99847427     -0.38088375
C      -1.35036239     -0.87912123     -0.39931836
O      -1.74903403     -0.70693894     -1.55630236
C      -0.41177727      0.14105531      0.29592686
C       1.05823731     -0.28561995      0.28259329
C       1.61360102     -1.01979549     -0.77809964
C       2.96011690     -1.38883372     -0.76031334
C       3.77206324     -1.02206215      0.31035847
C       3.24124967     -0.27974014      1.36234774
C       1.89539040      0.09008981      1.34758698
C      -0.60038006      1.57579445     -0.20901798
C      -1.13898784      2.55482823      0.64433948
C      -1.30646936      3.87056561      0.20676401
C      -0.93999944      4.22770124     -1.08840508
C      -0.40778187      3.26986038     -1.94773145
C      -0.23871699      1.95406308     -1.51207102
H      -0.16485988     -3.12898929      1.12174978
H      -0.63655983     -1.73277718      2.11814676
H      -1.67589982     -3.15822844      2.07508113
H      -1.89461274     -3.69489960     -0.90830272
H      -3.21724063     -2.51711895     -1.10474685
H      -3.16853691     -3.54437462      0.34043949
H      -0.73377191      0.15859302      1.34544333
H       1.00670157     -1.30674344     -1.63537014
H       3.37658386     -1.95666579     -1.58848060
H       4.82123021     -1.30533234      0.31902018
H       3.87758141      0.01945302      2.19114725
H       1.50318268      0.68325091      2.17118986
H      -1.43438167      2.30216040      1.65998817
H      -1.72525377      4.61670314      0.87671820
H      -1.07284315      5.25038936     -1.43030944
H      -0.12748704      3.54287810     -2.96154658
H       0.16711745      1.22031593     -2.20518060
