10
OCCO
O      -1.29323294      1.13333773     -0.27720408
C      -0.91020525     -0.08814370      0.35237863
C       0.43870508     -0.53723412     -0.19539565
O       1.39840827      0.48970489      0.06125710
H      -0.49747813      1.69966848     -0.22600798
H      -1.68292114     -0.83746428      0.16085469
H      -0.85130113      0.10007398      1.42889096
H       0.38617496     -0.68053405     -1.27901671
H       0.76837085     -1.46205908      0.28612672
H       2.24347942      0.18265016     -0.31188368
