35
CCCCNC(=O)NS(=O)(=O)c1ccc(N)cc1
C      -4.22082131     -3.75975968      0.84871633
C      -3.84781156     -2.40629447      0.26413504
C      -2.61469055     -2.50769056     -0.63638070
C      -2.24846114     -1.17088792     -1.28166517
N      -1.83615012     -0.17580962     -0.31385518
C      -0.57386638     -0.15773078      0.20468653
O       0.31966421     -0.90859887     -0.14762000
N      -0.42263508      0.81918034      1.17114224
S       0.96447992      1.09591261      2.04071815
O       1.41865775     -0.13663564      2.64357052
O       0.66584951      2.25113613      2.86510156
C       2.13381578      1.61525291      0.81215512
C       2.99817580      0.68364975      0.23628704
C       3.93381776      1.10611002     -0.71183300
C       4.05456486      2.45889250     -1.04524065
N       4.91086765      2.85541953     -2.07853092
C       3.15559589      3.37402772     -0.48782031
C       2.21207242      2.96419481      0.45840767
H      -4.45057082     -4.47963025      0.05668423
H      -3.40348918     -4.16387684      1.45452534
H      -5.10376857     -3.66579663      1.48863983
H      -4.69657049     -2.01658899     -0.30973365
H      -3.66103900     -1.70507991      1.08527898
H      -1.76665098     -2.88903742     -0.05483401
H      -2.81021666     -3.23563798     -1.43316687
H      -1.43117524     -1.32308892     -1.99561323
H      -3.10210227     -0.75901026     -1.83006090
H      -2.54663582      0.38743430      0.12456715
H      -1.15912166      1.47578228      1.38483112
H       2.93282753     -0.37097172      0.49774176
H       4.57159779      0.36485795     -1.18682806
H       5.71031908      2.24216832     -2.20556357
H       5.17984201      3.83340387     -2.03845459
H       3.18807947      4.41955673     -0.78367628
H       1.54554938      3.69853286      0.90368848
