35
CCCCCCCCC(=O)OCC
C      -4.90533244      1.46276255     -0.94154864
C      -4.63402844      0.83049895      0.41479135
C      -3.66326986     -0.35080041      0.35529596
C      -2.24740873      0.04852517     -0.06626197
C      -1.29379487     -1.14705409     -0.00639805
C       0.12204610     -0.75134500     -0.43053958
C       1.07436473     -1.94981966     -0.37141295
C       2.49215216     -1.59046543     -0.81514723
C       3.22741821     -0.73197424      0.18906882
O       2.91744445     -0.59322076      1.36334699
O       4.30787125     -0.15769267     -0.41277784
C       5.11713565      0.68012761      0.42554217
C       4.55881514      2.09065150      0.45119492
H      -5.25770958      0.71606532     -1.66008607
H      -4.00914639      1.93993838     -1.34855314
H      -5.67703487      2.23372777     -0.84849944
H      -5.58532311      0.47701582      0.83023186
H      -4.25205485      1.59337931      1.10309407
H      -3.62450250     -0.81205238      1.34997926
H      -4.05292100     -1.11262065     -0.33090511
H      -2.25787091      0.44751535     -1.08673974
H      -1.87883127      0.84500568      0.59134080
H      -1.27186291     -1.54908277      1.01383435
H      -1.66438760     -1.94515974     -0.66113120
H       0.10004629     -0.35131887     -1.45158507
H       0.48540845      0.05105982      0.22180893
H       1.08837898     -2.36377128      0.64405839
H       0.69386370     -2.73842957     -1.03220624
H       3.07486099     -2.50953102     -0.94341762
H       2.45489379     -1.06654796     -1.77697259
H       5.20713617      0.26501910      1.43593281
H       6.12248464      0.69035959     -0.00810950
H       4.47741621      2.49031435     -0.56496662
H       5.20130612      2.75136668      1.04001211
H       3.55243629      2.10755356      0.88135165
