20
COc1cc(C(=O)O)ccc1O
C      -2.69568134      1.26204186      0.60624046
O      -2.35496132     -0.04016847      0.14220892
C      -1.02011479     -0.29959116     -0.03406928
C       0.02947095      0.58862320      0.19761108
C       1.35638392      0.18306719     -0.02768600
C       2.43695697      1.16485168      0.23366688
O       2.27924980      2.30471084      0.63054801
O       3.66324028      0.67352331     -0.01405091
C       1.62983044     -1.11358629     -0.48538409
C       0.58253561     -2.00391059     -0.71793078
C      -0.72428332     -1.58979363     -0.49106077
O      -1.73291878     -2.48374007     -0.72739333
H      -2.27227300      1.45035377      1.59833362
H      -3.78530010      1.30992243      0.69457173
H      -2.38533236      2.02963757     -0.11032417
H      -0.15010142      1.59915427      0.55209390
H       4.26522132      1.41736126      0.19829935
H       2.65193371     -1.43881372     -0.66327821
H       0.78127156     -3.01111111     -1.07255171
H      -2.55512813     -2.00253234     -0.50984468
