47
CC(C)OP(=S)(OC(C)C)SCCNS(=O)(=O)c1ccccc1
C      -4.52887016      2.03965903      1.76273171
C      -4.20040370      2.15428383      0.28039582
C      -5.46721165      2.35893391     -0.54005346
O      -3.59267286      0.93632747     -0.13061460
P      -2.09401444      0.94542528     -0.75992599
S      -2.00966150      1.87294471     -2.47216883
O      -1.86275278     -0.64787389     -0.97461201
C      -2.33879396     -1.58954044     -0.02108555
C      -1.23235362     -2.59897650      0.24788630
C      -3.56739012     -2.27946763     -0.60007799
S      -0.76292425      1.53065896      0.77467949
C       0.81583284      1.84232125     -0.08542180
C       1.46227599      0.56009809     -0.61189515
N       1.86043430     -0.29478301      0.51371893
S       2.76015814     -1.67541100      0.19026794
O       2.68072977     -2.49381614      1.38040746
O       2.36258196     -2.17659871     -1.10598715
C       4.40563981     -1.02596088      0.08404779
C       5.01026841     -0.86388513     -1.16701061
C       6.30920166     -0.36124025     -1.23995499
C       6.99840557     -0.03261739     -0.07035876
C       6.39338103     -0.20629967      1.17673936
C       5.09430920     -0.70785630      1.25795106
H      -3.61813638      1.87782370      2.34818737
H      -5.17989644      1.17956976      1.95582305
H      -5.02210189      2.94453859      2.13118109
H      -3.52252868      3.00012687      0.12405582
H      -5.99411490      3.26945008     -0.23811833
H      -6.14759506      1.50623502     -0.43314654
H      -5.22929799      2.43668356     -1.60551764
H      -2.60027046     -1.09394748      0.92053030
H      -0.86832022     -3.04549123     -0.68407890
H      -0.37701520     -2.10570074      0.71926995
H      -1.57497297     -3.39822614      0.91274086
H      -4.35951598     -1.55361636     -0.81024611
H      -3.33005566     -2.76715984     -1.55339731
H      -3.96110471     -3.03148939      0.08974828
H       1.48713467      2.33442696      0.62656127
H       0.64240263      2.54372805     -0.90620484
H       2.34884821      0.83024589     -1.19577759
H       0.77244027      0.02056881     -1.26834673
H       1.19269415     -0.43235688      1.27324161
H       4.48167668     -1.12604729     -2.08106424
H       6.78717609     -0.22887766     -2.20827487
H       8.01249984      0.35525391     -0.13078511
H       6.93744761      0.04548320      2.08426492
H       4.62643673     -0.84754699      2.22932547
