61
CCCCC(=O)N(Cc1ccc(-c2ccccc2-c2nn[nH]n2)cc1)[C@H](C(=O)O)C(C)C
C       6.67488375      1.45856957     -2.10516336
C       5.64931664      0.43588406     -1.64137744
C       4.64488527      1.04911348     -0.66585464
C       3.60004647      0.02062316     -0.23103215
C       2.60345631      0.58746337      0.77162738
O       2.70220855      1.74261304      1.17518665
N       1.56642389     -0.24881984      1.20201312
C       0.66761697      0.28742136      2.24995521
C      -0.66195866      0.75355360      1.71764561
C      -0.76286128      1.96520615      1.02045011
C      -1.97242860      2.34559546      0.43437091
C      -3.10989018      1.53319976      0.54355531
C      -4.35406377      1.87267739     -0.17207329
C      -5.05504028      3.03921845      0.19141997
C      -6.26058184      3.38020359     -0.42662237
C      -6.79136273      2.55986823     -1.42019089
C      -6.11264341      1.40339782     -1.80549053
C      -4.89159302      1.05516366     -1.20127982
C      -4.22247516     -0.15821853     -1.65296417
N      -4.86581645     -1.36875949     -1.74593695
N      -3.94197881     -2.26964346     -2.05983867
N      -2.79669048     -1.57157236     -2.12620078
N      -2.91860883     -0.24559950     -1.96540619
C      -3.01962660      0.35999064      1.30988969
C      -1.80822490     -0.03261208      1.88066928
C       1.34608092     -1.64118132      0.68150258
C       0.29084430     -1.68111032     -0.45783333
O      -0.22859169     -2.68607482     -0.92414427
O       0.08364264     -0.49539392     -1.06332661
C       1.17361149     -2.71314670      1.79476528
C       2.34501677     -2.65830227      2.79838227
C       1.12407971     -4.14437244      1.24308967
H       7.38183398      0.99541697     -2.80197882
H       6.18982244      2.29352000     -2.62193147
H       7.24580286      1.85958450     -1.25868584
H       6.17017867     -0.40237178     -1.15792061
H       5.12466547      0.03343399     -2.51761813
H       4.14509410      1.90687299     -1.13624739
H       5.17421532      1.43515734      0.21592730
H       4.11052930     -0.82921883      0.23798120
H       3.05523238     -0.32370327     -1.11798308
H       1.14426119      1.13065096      2.76876858
H       0.52222347     -0.46725580      3.02981698
H       0.10837852      2.60821268      0.90104933
H      -2.01439703      3.26486520     -0.14750451
H      -4.66536402      3.68317010      0.97875417
H      -6.78866211      4.28263509     -0.12625509
H      -7.73287149      2.82078640     -1.89761800
H      -6.53459778      0.77340866     -2.58931893
H      -1.89036882     -2.02389828     -2.25656204
H      -3.89087432     -0.28152676      1.42654661
H      -1.77127672     -0.96906964      2.43208397
H       2.25637769     -1.92751051      0.15139887
H       0.45361568      0.25635682     -0.55499374
H       0.23731497     -2.54554289      2.33565189
H       2.25297768     -3.45415140      3.55199324
H       3.31453172     -2.78808551      2.29429391
H       2.37585953     -1.71024081      3.33769074
H       0.18159150     -4.34540414      0.72506605
H       1.95138851     -4.33125391      0.54824048
H       1.19484031     -4.87979389      2.05674038
