20
COC(=O)c1ccccc1N
C       3.19509722     -0.68940482     -1.31285908
O       1.86820212     -0.88347047     -0.82193191
C       1.28792418      0.24578421     -0.33883310
O       1.81180099      1.34994594     -0.29397371
C      -0.09960287     -0.03697446      0.12810357
C      -0.47667871     -1.34936153      0.46683703
C      -1.76915683     -1.62111815      0.91545662
C      -2.69582533     -0.58909226      1.01918805
C      -2.32769277      0.71681449      0.68800983
C      -1.02005935      1.02202109      0.28195851
N      -0.75498165      2.33099433     -0.16563931
H       3.56383217     -1.65070350     -1.68119660
H       3.85546988     -0.35030521     -0.50857229
H       3.19662823      0.02335396     -2.14351795
H       0.23122319     -2.17058008      0.38396706
H      -2.05482721     -2.63855754      1.17078433
H      -3.71163154     -0.79915854      1.34484738
H      -3.07713344      1.50308438      0.74253682
H       0.25016921      2.53393236     -0.19922985
H      -1.27275750      3.05279582      0.32406461
