21
O=C1C2(Cl)C3(Cl)C4(Cl)C(Cl)(Cl)C5(Cl)C3(Cl)C1(Cl)C5(Cl)C24Cl
O       3.46012280      0.27733261     -0.26609574
C       2.24846035      0.18021661     -0.17291452
C       1.11048865      1.10961892     -0.70940053
Cl      1.66063238      2.53594045     -1.59679915
C       0.01734834      0.14214470     -1.35120549
Cl     -0.11097449      0.04459422     -3.11250950
C      -1.08043994      0.89930250     -0.51968815
Cl     -1.96486123      2.23801180     -1.31349749
C      -1.96771181     -0.15771439      0.15132394
Cl     -3.00848164     -0.99701542     -1.01215564
Cl     -2.93924377      0.52029825      1.46955658
C      -0.83274246     -1.05264626      0.66681861
Cl     -1.36301700     -2.50474510      1.56942303
C       0.19342384     -1.24539572     -0.50777856
Cl      0.24631851     -2.77100580     -1.40102581
C       1.36690688     -0.91105283      0.51888018
Cl      2.26432075     -2.22135095      1.29495667
C       0.24472576     -0.12113908      1.33105108
Cl      0.37168303     -0.02369789      3.09246010
C       0.06865037      1.26640131      0.48762413
Cl      0.01439070      2.79190207      1.38097625
