18
Clc1c(Cl)c(Cl)c2ccccc2c1Cl
Cl     -3.87448679      1.63876427     -0.38385218
C      -2.38875268      0.74138294     -0.21297142
C      -2.42177501     -0.65396167     -0.09210156
Cl     -3.94868766     -1.49659435     -0.11227188
C      -1.21888780     -1.37174158      0.04547565
Cl     -1.27470811     -3.11329407      0.19542928
C       0.04091088     -0.70844403      0.06492749
C       1.27593227     -1.39629275      0.20184916
C       2.50251102     -0.73386477      0.21933880
C       2.53507910      0.64231780      0.10014171
C       1.34089466      1.34873668     -0.03590252
C       0.07439259      0.70634890     -0.05761139
C      -1.15294061      1.41484416     -0.19589686
Cl     -1.12631642      3.15692781     -0.34769526
H       1.30505783     -2.48076662      0.29918947
H       3.42600967     -1.29771148      0.32609521
H       3.48446143      1.17212803      0.11214281
H       1.42130563      2.43122076     -0.12628650
