23
Cc1c(C(N)=O)cc([N+](=O)[O-])cc1[N+](=O)[O-]
C      -2.25339031      0.20886367     -1.02517977
C      -0.93398735     -0.12194743     -0.37320323
C       0.00367220      0.89049947     -0.06950040
C      -0.30321933      2.32529521     -0.31282544
N       0.69716411      3.07940115     -0.85643500
O      -1.39566852      2.80250278     -0.04625185
C       1.24071246      0.57662675      0.52168065
C       1.55419546     -0.75428453      0.82172436
N       2.84996660     -1.07308028      1.43240388
O       3.70312146     -0.17623714      1.46168486
O       3.00892550     -2.21894646      1.87198672
C       0.64270793     -1.77732486      0.55819484
C      -0.59048973     -1.44473431     -0.02070639
N      -1.52032837     -2.54293311     -0.24578768
O      -1.12825168     -3.46133869     -0.97627039
O      -2.61535883     -2.48346606      0.32530017
H      -2.64006637     -0.62984145     -1.61243098
H      -2.99219861      0.47965386     -0.26491405
H      -2.14853187      1.03144519     -1.73997267
H       0.46691300      4.03709242     -1.09437436
H       1.54453726      2.69109988     -1.24662014
H       1.93670626      1.37620480      0.77385786
H       0.87286873     -2.81455088      0.80056261
