27
CC(OP(C)(=O)F)C(C)(C)C
C      -0.82052212     -1.91664875      0.39176808
C      -0.13692131     -0.55349618      0.47603510
O       0.85743235     -0.51815279     -0.54806490
P       2.40019100     -0.70705108     -0.10188389
C       3.27705947     -0.67120357     -1.64758403
O       2.63125507     -1.94414213      0.71479985
F       2.65916710      0.57453617      0.76880511
C      -1.08804020      0.67099665      0.31092763
C      -0.26206627      1.97053711      0.42653177
C      -1.78806544      0.67534487     -1.06132730
C      -2.15877663      0.68367996      1.41703552
H      -1.27623246     -2.07908188     -0.59000447
H      -0.08237791     -2.71670290      0.51667325
H      -1.58254445     -2.04360651      1.16476259
H       0.35252685     -0.48105784      1.45623962
H       3.06332723      0.25458125     -2.18878068
H       2.98447901     -1.51515830     -2.27818808
H       4.35531598     -0.72566452     -1.47533573
H      -0.90475428      2.85607709      0.36160791
H       0.48270561      2.04866546     -0.37307849
H       0.26784993      2.01583853      1.38462523
H      -2.45027239     -0.18833784     -1.17993799
H      -2.40524798      1.57318843     -1.18351833
H      -1.06423341      0.66122955     -1.88324961
H      -1.69991612      0.63872659      2.41094689
H      -2.76217134      1.59777011      1.37167109
H      -2.84916727     -0.16086748      1.32435094
