14
CC(C)C
C      -1.16726931     -0.81169335     -0.29119975
C       0.09022591      0.04817373     -0.39750732
C       1.27097641     -0.64088030      0.28293344
C      -0.14976425      1.42798275      0.21117866
H      -1.00786975     -1.79193689     -0.75275211
H      -1.45341458     -0.97194692      0.75393052
H      -2.00914465     -0.33389437     -0.80332318
H       0.33134211      0.17691090     -1.45978691
H       1.46423935     -1.61875195     -0.17064437
H       2.18133216     -0.04032759      0.18340775
H       1.08154468     -0.79435853      1.35083651
H      -0.97750993      1.93688734     -0.29396393
H       0.74085813      2.05727012      0.11065453
H      -0.39554627      1.35656507      1.27623617
