49
O=C([O-])[C@H](O)[C@@H](O)[C@H](O)[C@H](O)CO.O=C([O-])[C@H](O)[C@@H](O)[C@H](O)[C@H](O)CO.[Cu+2]
O       3.73581778     -0.49917605     -0.00704742
C       2.47318698     -0.54639700     -0.11034572
O       1.65940948     -1.45960485      0.19929997
C       1.86365856      0.75922647     -0.68609695
O       2.78150404      1.86820428     -0.43111475
C       0.52528856      1.08074126     -0.02419083
O       0.19096655      2.45888961     -0.34511712
C      -0.62400284      0.16469983     -0.51871177
O      -1.54580044      0.93102873     -1.31742660
C      -1.38287392     -0.49904654      0.64880492
O      -0.54461873     -1.25529876      1.53992879
C      -2.46828821     -1.45875387      0.14263581
O      -3.07150218     -2.12296977      1.26334648
O      -2.08849949      1.49444033      0.30651934
C      -2.54470594      0.31604791      0.34472999
O      -3.55925949     -0.15529999      0.94461693
C      -1.76246746     -0.75252147     -0.47544591
O      -2.55417570     -1.99351916     -0.47165966
C      -0.43754691     -1.05481143      0.22425005
O      -0.13481658     -2.47347307      0.01414625
C       0.81809503     -0.30511919     -0.27381137
O       1.95040345     -0.97469779      0.34644147
C       0.87746081      1.21382362      0.00221050
O       0.05182462      1.91958955     -0.93254566
C       2.30761029      1.77934668     -0.13939552
O       3.20271534      1.27866114      0.85798299
Cu      0.00000000      0.00000000      0.00000000
H       1.77246393      0.68291198     -1.77415150
H       3.62843194      1.37837651     -0.26621025
H       0.63768333      1.04108565      1.06560831
H       1.07259371      2.89599059     -0.34478517
H      -0.23432794     -0.62416430     -1.17138947
H      -1.27151448      1.86413635     -1.15817578
H      -1.86841225      0.26966534      1.26039286
H       0.28912254     -1.50248734      1.04893024
H      -3.25768546     -0.94726829     -0.40881167
H      -2.03731585     -2.23870512     -0.49441763
H      -2.32378511     -2.24108470      1.88904524
H      -1.63434162     -0.44788056     -1.52020571
H      -3.31169308     -1.73752735      0.12209194
H      -0.53031473     -0.95035933      1.30872553
H      -1.03230249     -2.86753588     -0.11252771
H       0.92438838     -0.48280661     -1.35038818
H       1.66832573     -1.92028475      0.33342459
H       0.54107755      1.41491295      1.03008660
H      -0.84944178      1.97741466     -0.49685869
H       2.29843678      2.87177585     -0.05243474
H       2.72208487      1.54863130     -1.13082138
H       3.07714241      0.30119260      0.82771051
