15
CC(C)(C)O
C       1.37416306      0.66601536     -0.02602507
C       0.01071214      0.01352933     -0.24391695
C      -1.09556055      0.85519994      0.39062768
C       0.00050901     -1.40930523      0.31315895
O      -0.21649084     -0.04825465     -1.65248811
H       2.16544980      0.09068773     -0.52020875
H       1.40129824      1.66944149     -0.46619980
H       1.61784004      0.74755113      1.03826826
H      -0.95939142      0.95078388      1.47276619
H      -2.08032301      0.41196568      0.20362770
H      -1.12050613      1.85962650     -0.04714465
H       0.18893486     -1.42169040      1.39160441
H       0.76031631     -2.02619318     -0.18007689
H      -0.96308505     -1.89627282      0.12466127
H      -1.08386646     -0.46308475     -1.79865424
