30
O=C(O)c1ccccc1Nc1cccc(C(F)(F)F)c1
O      -1.52933208      2.68084223      0.86551410
C      -2.54572589      2.13578339      0.46947948
O      -3.66645786      2.84602412      0.24518038
C      -2.69971696      0.68332499      0.18588870
C      -3.97289243      0.15977792     -0.10383407
C      -4.13882908     -1.20188508     -0.35218485
C      -3.03898682     -2.05052050     -0.30483566
C      -1.77085826     -1.53745216     -0.02017513
C      -1.56938597     -0.16725493      0.21888347
N      -0.27264563      0.33268343      0.48343598
C       0.98921579     -0.02369940     -0.03093482
C       1.16599928     -0.81699583     -1.16830341
C       2.44408527     -1.17329688     -1.60703811
C       3.56916697     -0.74428571     -0.90654993
C       3.42595235      0.05324059      0.23575350
C       4.63295860      0.50070860      1.01937867
F       4.95822006     -0.37089912      2.01363016
F       5.75296507      0.62600195      0.25270331
F       4.46233095      1.71017459      1.62315481
C       2.13229402      0.39665325      0.66590281
H      -3.41446858      3.76756384      0.46457177
H      -4.84639804      0.80715099     -0.13315591
H      -5.12651184     -1.59961055     -0.57210738
H      -3.16398165     -3.11613459     -0.48137712
H      -0.93426750     -2.22980493      0.04320814
H      -0.28493456      1.29708571      0.83348933
H       0.31087958     -1.14556826     -1.75209994
H       2.55792643     -1.78441009     -2.49917297
H       4.55941186     -1.03228376     -1.25627688
H       2.01398694      0.99708617      1.56787155
