75
CCCCCCCCCCCCCCCCCCCCCCCCO
C      10.03114027      3.71153047      0.73267873
C       9.55505315      2.61955926     -0.21372735
C       8.61818276      1.63985345      0.49390140
C       8.20200861      0.45183640     -0.37981069
C       7.31091099      0.85028582     -1.55870459
C       6.89145158     -0.33494650     -2.43515778
C       6.09316413     -1.43994717     -1.73641496
C       4.80200325     -0.94170686     -1.08478361
C       3.97672637     -2.10395904     -0.52770227
C       2.70719296     -1.60100069      0.16302778
C       1.86524978     -2.76282015      0.69382921
C       0.66213767     -2.31376506      1.52907546
C      -0.32658052     -1.37225015      0.83303092
C      -0.98201827     -1.98429323     -0.40688458
C      -1.93364988     -1.02411843     -1.12941325
C      -3.10212218     -0.47894568     -0.30125285
C      -4.04095148     -1.56928461      0.22053849
C      -5.19115103     -1.02244407      1.07269574
C      -6.18125956     -0.16101101      0.28576559
C      -7.35645321      0.27335498      1.16508374
C      -8.34056166      1.14958861      0.38666670
C      -9.50059510      1.60313727      1.27536436
C     -10.57562952      2.39005419      0.51720088
C     -10.09389966      3.70620900     -0.08267920
O      -9.56903863      4.54363053      0.93675980
H       9.18457519      4.27501067      1.13937192
H      10.59526838      3.28644055      1.56953799
H      10.68464169      4.41345743      0.20435225
H      10.42469081      2.08378026     -0.61088933
H       9.04619736      3.09035932     -1.06125738
H       9.12157295      1.24646049      1.38581755
H       7.72420861      2.16935841      0.84500657
H       9.09573541     -0.06616388     -0.74770277
H       7.66548845     -0.25659783      0.26142014
H       6.42352930      1.37911064     -1.19273270
H       7.84707755      1.55800580     -2.20118658
H       7.78934814     -0.78397746     -2.87782431
H       6.29729788      0.05125558     -3.27297858
H       6.71856280     -1.93853701     -0.98714667
H       5.84674112     -2.20323975     -2.48531002
H       4.20638080     -0.38943684     -1.82155527
H       5.03762523     -0.24769748     -0.27003710
H       3.70666649     -2.78663074     -1.34263471
H       4.58155455     -2.67526047      0.18706044
H       2.12188443     -1.01076709     -0.55110984
H       2.98017160     -0.93547408      0.99078270
H       2.49378837     -3.40358868      1.32533248
H       1.53099202     -3.39034946     -0.14034920
H       0.12341293     -3.20682696      1.86975900
H       1.03117051     -1.81495328      2.43421509
H       0.17137646     -0.43276847      0.56767071
H      -1.10100233     -1.11462103      1.56490576
H      -0.20850319     -2.27685686     -1.12613675
H      -1.51040226     -2.90422502     -0.13244307
H      -1.35273862     -0.17221417     -1.50505634
H      -2.33455147     -1.53500589     -2.01386891
H      -3.66323014      0.20951588     -0.94347674
H      -2.72403710      0.12054462      0.53436470
H      -4.44628358     -2.14346635     -0.62127902
H      -3.47670517     -2.27276038      0.84299173
H      -5.72765334     -1.87484691      1.50794249
H      -4.78308664     -0.44551983      1.91160234
H      -6.55620076     -0.72491222     -0.57686186
H      -5.67820395      0.73167512     -0.10181234
H      -6.97939233      0.82760309      2.03317768
H      -7.87721064     -0.61295666      1.54752452
H      -7.80759439      2.02212587     -0.00744075
H      -8.73075523      0.58962252     -0.47164299
H      -9.97617302      0.72098943      1.72224098
H      -9.11560924      2.20449912      2.10763960
H     -11.00006170      1.76444613     -0.27659891
H     -11.38539592      2.60621546      1.22549462
H      -9.32206685      3.54280983     -0.84064034
H     -10.93305480      4.22613604     -0.55618416
H      -9.28135714      5.36822021      0.50885770
