23
CCCCCCC
C      -3.78881511     -0.25263354     -0.08329989
C      -2.50370072      0.50694568     -0.37145393
C      -1.27281029     -0.29325136      0.05378081
C       0.01774577      0.47427694     -0.23776117
C       1.24962633     -0.32637861      0.18774128
C       2.53915812      0.44071317     -0.10365009
C       3.76619712     -0.35186332      0.31790661
H      -3.81248050     -1.20345657     -0.62525124
H      -4.65608100      0.33773956     -0.39510290
H      -3.88833315     -0.46380172      0.98620486
H      -2.45075186      0.73032472     -1.44336958
H      -2.52619033      1.46590659      0.15919908
H      -1.33279344     -0.51759323      1.12576240
H      -1.25735513     -1.25313951     -0.47673555
H       0.00216758      1.43404654      0.29291710
H       0.07762067      0.69840229     -1.30976983
H       1.26530275     -1.28627323     -0.34275694
H       1.18985961     -0.55071590      1.25973599
H       2.53043944      1.39949322      0.42773459
H       2.60588074      0.66391172     -1.17483393
H       3.74634193     -0.56407789      1.39164163
H       3.82220403     -1.30373311     -0.21981396
H       4.67676746      0.21515753      0.10051133
