20
Cc1ccc(C)c(C)n1
C       3.13664345     -0.42112306      0.11063488
C       1.68780363     -0.04065131      0.06087833
C       1.31652491      1.29662231      0.05710699
C      -0.03700240      1.61390753      0.01034782
C      -0.99323913      0.59525636     -0.03168805
C      -2.45319400      0.93288718     -0.08215645
C      -0.53501612     -0.72678111     -0.02465653
C      -1.48545398     -1.88842600     -0.06751781
N       0.78360209     -1.04582791      0.02082511
H       3.25439279     -1.50955577      0.10703235
H       3.59888845     -0.03156325      1.02296472
H       3.66351070     -0.01866934     -0.76012089
H       2.06376130      2.08231870      0.08987928
H      -0.33860000      2.65826031      0.00698171
H      -2.97035547      0.52151695      0.79044251
H      -2.90561491      0.53446592     -0.99576787
H      -2.61474136      2.01619048     -0.08015600
H      -2.14850482     -1.87198810      0.80280749
H      -2.08376986     -1.85905503     -0.98322900
H      -0.93963524     -2.83778487     -0.05460860
