19
O=[N+]([O-])c1cc([N+](=O)[O-])c(O)c([N+](=O)[O-])c1
O       3.70172367     -0.00812024      0.58628942
N       2.86508564     -0.87317041      0.29940955
O       3.09961854     -2.08369348      0.19984447
C       1.48458817     -0.42770303      0.05936492
C       1.17770751      0.93418636      0.12489313
C      -0.14571190      1.32882313     -0.10555484
N      -0.44396149      2.74248826     -0.02581013
O      -0.94762146      3.14861235      1.02832547
O      -0.10611395      3.43433858     -0.99425586
C      -1.16751241      0.41918730     -0.40401049
O      -2.42128224      0.91478428     -0.63111114
C      -0.83462406     -0.94418889     -0.46292803
N      -1.85291123     -1.95734329     -0.76869674
O      -3.01266911     -1.55900389     -0.95301308
O      -1.49546345     -3.13976739     -0.82364486
C       0.48817417     -1.37322710     -0.23162332
H       1.93955825      1.68022341      0.34927674
H      -3.06884487      0.19727210     -0.81023216
H       0.74026023     -2.43369807     -0.27895468
