23
Cc1cc(C)c(N)cc1C
C      -2.17414235     -1.54925799     -0.71978349
C      -1.00062220     -0.68937361     -0.33915077
C       0.19158680     -1.29864089      0.08112960
C       1.31370437     -0.54036999      0.45785974
C       2.54924275     -1.25251443      0.93502795
C       1.26006263      0.85844539      0.36707196
N       2.31259981      1.66680302      0.82742122
C       0.04748619      1.46544970      0.01346614
C      -1.08004319      0.71283344     -0.35560575
C      -2.34308618      1.42488458     -0.75409602
H      -2.53830224     -1.28186787     -1.71678931
H      -1.90277449     -2.60997145     -0.74824527
H      -2.98229096     -1.42986208      0.00865100
H       0.24495085     -2.38506290      0.12870359
H       2.39107899     -2.33407718      1.00381749
H       2.83172064     -0.90083052      1.93262734
H       3.37664243     -1.08139575      0.23896015
H       3.22592119      1.23440820      0.74296656
H       2.29948644      2.60473209      0.44005853
H      -0.02042617      2.55113257      0.02383738
H      -2.58709440      1.20794075     -1.79880119
H      -3.17430135      1.11559042     -0.11251127
H      -2.24139956      2.51100449     -0.65661557
