24
COC(=O)c1ccc(C(=O)OC)cc1
C       4.95171242     -0.11964484      0.71330195
O       3.56254168      0.18717510      0.58469829
C       2.79464179     -0.87424120      0.23448816
O       3.19329784     -2.01055053      0.03370786
C       1.36470872     -0.47481866      0.12106871
C       0.42954172     -1.45686906     -0.23500459
C      -0.92736605     -1.13573181     -0.35575873
C      -1.36470930      0.17451628     -0.12106510
C      -2.79464215      0.57393931     -0.23448870
O      -3.19329867      1.71024945     -0.03371268
O      -3.56254033     -0.48747749     -0.58470013
C      -4.95171159     -0.18066024     -0.71330591
C      -0.42954246      1.15656682      0.23500887
C       0.92736529      0.83542933      0.35576374
H       5.35686479     -0.47028130     -0.24111220
H       5.47613271      0.79729759      0.99602058
H       5.10857202     -0.86492542      1.49940138
H       0.75383666     -2.48002468     -0.42073096
H      -1.62857685     -1.91942946     -0.63348248
H      -5.10857201      0.56462138     -1.49940344
H      -5.47612984     -1.09760438     -0.99602485
H      -5.35686496      0.16997478      0.24110800
H      -0.75383730      2.17972290      0.42073419
H       1.62857588      1.61912641      0.63348800
