16
CC(C)(C)N
C       0.50146736     -0.63101160     -1.29633684
C       0.06195702     -0.10181208      0.07294190
C       1.01761205      1.00029588      0.54222576
C      -1.36981611      0.44095522     -0.00669539
N       0.11104754     -1.20506272      1.03804523
H       1.51944307     -1.03659867     -1.26090978
H       0.48966259      0.16675009     -2.04782469
H      -0.16254727     -1.42828585     -1.65051238
H       0.72909353      1.38980349      1.52560898
H       1.01994044      1.84272244     -0.15892234
H       2.04721965      0.63147286      0.61908907
H      -1.71072621      0.81601460      0.96538328
H      -1.43650354      1.26848341     -0.72221569
H      -2.07453863     -0.33383790     -0.33055943
H      -0.53908705     -1.93912532      0.75892852
H      -0.20422443     -0.88076385      1.95175378
