28
Cc1ccc(C(C)(C)C)c(O)c1
C       4.08942830      0.00265602      0.87060945
C       2.62662239      0.00726084      0.54328579
C       2.15682806     -0.60078540     -0.61943089
C       0.78644309     -0.62413139     -0.90966798
C      -0.16919754     -0.05141199     -0.04741373
C      -1.67614962     -0.08462087     -0.38367680
C      -2.23432707      1.35116601     -0.50112793
C      -2.45363495     -0.86141983      0.70194761
C      -1.99630212     -0.78432100     -1.72992911
C       0.33063502      0.54215484      1.12761437
O      -0.53245922      1.11379442      2.02258691
C       1.70043304      0.56867381      1.42369129
H       4.36288843      0.89138701      1.44907408
H       4.69465793      0.01124880     -0.04202354
H       4.34006635     -0.88957551      1.45254750
H       2.85176885     -1.06430634     -1.31660137
H       0.49410988     -1.11024862     -1.83616403
H      -2.19902317      1.89981486      0.44427909
H      -3.28443164      1.34134624     -0.81677606
H      -1.67057487      1.93287711     -1.24009093
H      -2.04854050     -1.87249273      0.82803711
H      -2.42277676     -0.37165795      1.67933310
H      -3.51273451     -0.95857644      0.43492612
H      -1.67401349     -1.83221774     -1.72797867
H      -3.07480311     -0.78312466     -1.93015888
H      -1.51468428     -0.27686909     -2.57403489
H      -0.02533708      1.47590510      2.76620464
H       2.05510859      1.02747448      2.34245107
