33
Cc1ccc2cc3ccc4ccccc4c3cc2c1
C       4.99119329      1.86281556      0.62883811
C       3.90121048      0.86469325      0.37376131
C       4.20285608     -0.48882593      0.20936767
C       3.18143660     -1.41857431      0.00342816
C       1.83721225     -1.01432919     -0.03123386
C       0.79835985     -1.93227210     -0.23656203
C      -0.54826618     -1.52985010     -0.26752550
C      -1.54542608     -2.48647810     -0.47593407
C      -2.88838283     -2.12304808     -0.51204166
C      -3.27408344     -0.79173106     -0.34068039
C      -4.63865956     -0.45765427     -0.38254851
C      -5.06219766      0.85785486     -0.21606510
C      -4.12363769      1.85583263     -0.00543029
C      -2.76309742      1.53566318      0.03822697
C      -2.29069488      0.20835800     -0.12673052
C      -0.89944715     -0.16947572     -0.08957999
C       0.17004975      0.74013130      0.11665411
C       1.52051113      0.34248151      0.14740589
C       2.55931711      1.26859373      0.35390429
H       5.92622113      1.55193781      0.15101499
H       5.16104794      1.96440772      1.70509849
H       4.72706795      2.84262540      0.21723686
H       5.23484414     -0.83079866      0.23919083
H       3.44407575     -2.46593107     -0.12731514
H       1.04466801     -2.98390524     -0.37482990
H      -1.28695778     -3.53441033     -0.61378712
H      -3.63362752     -2.89840863     -0.67677039
H      -5.38907596     -1.22840060     -0.54694508
H      -6.12084957      1.09943157     -0.25116520
H      -4.44280351      2.88643246      0.12582619
H      -2.07150122      2.35606751      0.20601091
H      -0.04163992      1.79635206      0.25874979
H       2.32027692      2.32041485      0.50043018
