22
CC[C@@H](C)[C@H](N)C(=O)O
C       2.32682657     -1.10428756      0.14246973
C       1.70957701      0.28684092      0.16688293
C       0.20239525      0.29546738      0.50686871
C      -0.26437589      1.75223301      0.65799842
C      -0.65937217     -0.50463507     -0.50184160
N      -0.58235371      0.05290123     -1.87346298
C      -2.12770837     -0.59026670     -0.05511944
O      -3.09942743     -0.19520277     -0.68263155
O      -2.28893255     -1.19860753      1.13619290
H       2.12144633     -1.64264011      1.07296230
H       1.94967880     -1.69810116     -0.69490749
H       3.41312697     -1.02943409      0.02770138
H       2.24500802      0.87906302      0.92001092
H       1.88978682      0.77790582     -0.79683355
H       0.08870098     -0.17372441      1.49382416
H      -0.12176282      2.32309880     -0.26519744
H       0.30463024      2.25560961      1.44761465
H      -1.32156256      1.80725227      0.93552124
H      -0.30750871     -1.54081808     -0.55862240
H      -1.17113387     -0.52163885     -2.48081308
H      -1.04796942      0.96305730     -1.87580436
H      -3.25906948     -1.19407304      1.27718654
