13
N[C@@H]1CONC1=O
N       1.67600747      0.50460484      0.59931065
C       0.54873432      0.29047093     -0.32240937
C      -0.70526043      1.08712245      0.00517530
O      -1.80501432      0.32413178     -0.51700800
N      -1.36056472     -1.02268497     -0.51973790
C      -0.02064470     -1.10207876     -0.21949916
O       0.59030088     -2.11950780      0.06955189
H       1.38511178      0.25315439      1.54598381
H       2.39322464     -0.18995252      0.37026041
H       0.86326182      0.45352513     -1.35908844
H      -0.86082506      1.20342294      1.08448511
H      -0.69412941      2.07942949     -0.45555507
H      -2.01020226     -1.76163789     -0.28146923
