18
Fc1cccc2ccccc12
F      -1.28420098      2.65533498      0.41589306
C      -1.23314166      1.32167065      0.26766570
C      -2.41771174      0.59890407      0.38145044
C      -2.39678842     -0.78432760      0.23283775
C      -1.18954497     -1.43692030     -0.02901048
C       0.01190235     -0.71505615     -0.14559204
C       1.23202982     -1.35907092     -0.40860269
C       2.41606367     -0.62756734     -0.52137230
C       2.39737155      0.75626228     -0.37305908
C       1.19386998      1.41193457     -0.11148981
C      -0.00741815      0.69043831      0.00510151
H      -3.34642529      1.12214715      0.58510166
H      -3.31696192     -1.35632170      0.32010129
H      -1.19156781     -2.51934271     -0.14237041
H       1.26927335     -2.43969783     -0.52805380
H       3.35300002     -1.13968571     -0.72518614
H       3.31834793      1.32686108     -0.46061337
H       1.19190227      2.49443718      0.00250903
