13
CC(C)[N+](=O)[O-]
C      -0.88080751     -0.55285745      0.94319799
C      -0.22925706     -0.07658992     -0.34670822
C       1.22973262     -0.49174719     -0.46587354
N      -0.30882436      1.43118272     -0.40049542
O       0.26627514      2.07299441      0.48873862
O      -0.94972384      1.92091061     -1.33921245
H      -0.89363392     -1.64715912      0.98389402
H      -0.34632360     -0.19277647      1.82945874
H      -1.91622600     -0.20158608      1.01437878
H      -0.79362915     -0.45186874     -1.20831294
H       1.82890556     -0.12979351      0.37719885
H       1.67750003     -0.09753002     -1.38492028
H       1.31601208     -1.58317925     -0.49134415
