52
O=C(O)COCCN1CCN([C@H](c2ccccc2)c2ccc(Cl)cc2)CC1
O       7.26929169     -0.49736020      0.71867312
C       6.59084314     -1.44246577      0.35179179
O       7.12294060     -2.68373939      0.31518111
C       5.13041004     -1.43079567     -0.08973022
O       4.49219092     -0.16209597     -0.13193312
C       4.18976888      0.35363716      1.16724836
C       3.43616621      1.69375156      1.04846251
N       2.00278401      1.66953843      0.70754784
C       1.72336014      1.01089035     -0.57704396
C       0.22229576      1.09647029     -0.94091415
N      -0.65472665      0.48830539      0.09632892
C      -2.09677496      0.65735097     -0.25690882
C      -3.05905954      0.13293457      0.81877836
C      -2.90107019     -1.13907096      1.39632869
C      -3.79859110     -1.60345384      2.35932741
C      -4.86988537     -0.80646873      2.75595446
C      -5.04576130      0.45446593      2.19022169
C      -4.14901135      0.92111807      1.22681055
C      -2.47104771      0.03629120     -1.61252053
C      -3.28144696      0.75386227     -2.51013096
C      -3.64981987      0.19883297     -3.73851074
C      -3.21623260     -1.08017391     -4.07902013
Cl     -3.66994320     -1.76148958     -5.59268213
C      -2.41874229     -1.81091219     -3.20268689
C      -2.05086056     -1.25660251     -1.97457878
C      -0.34038088      1.15170200      1.38930919
C       1.16163146      1.07337397      1.75398530
H       8.05060576     -2.54947631      0.60406338
H       4.55929941     -2.11232024      0.55074160
H       5.10614245     -1.82295400     -1.11201847
H       3.61212907     -0.37791214      1.74123014
H       5.12685553      0.53744680      1.70335346
H       3.54009530      2.22820498      2.00128768
H       3.94553569      2.31551336      0.30104504
H       2.00958490     -0.04767832     -0.55284987
H       2.29814704      1.49543388     -1.37519638
H      -0.04701101      2.14955470     -1.10140948
H       0.10000580      0.58060512     -1.89908694
H      -2.26822498      1.74116400     -0.34201391
H      -2.06620640     -1.77026721      1.10083332
H      -3.66114043     -2.58821364      2.79773660
H      -5.56964758     -1.16959229      3.50388183
H      -5.88450553      1.07408401      2.49657172
H      -4.30869855      1.90569534      0.79347079
H      -3.63480564      1.75070279     -2.25562992
H      -4.27582283      0.76718127     -4.42096800
H      -2.08079834     -2.80934611     -3.46542110
H      -1.42332102     -1.83310781     -1.29824165
H      -0.64586404      2.20684604      1.36256152
H      -0.88768128      0.67593539      2.20981148
H       1.42627593      0.02337213      1.92911018
H       1.31072245      1.61123185      2.69789175
