13
Sc1ccccc1
S       2.73074802      0.44581022     -0.77761761
C       1.02585634      0.21226410     -0.32520951
C       0.19466972      1.32257057     -0.15372865
C      -1.14662725      1.15038093      0.19518113
C      -1.66283979     -0.13270877      0.36957013
C      -0.83985126     -1.24404280      0.19297253
C       0.50186446     -1.07258693     -0.15573877
H       3.22380533     -0.56668800     -0.05013706
H       0.58384699      2.32884911     -0.28959793
H      -1.78777614      2.01792236      0.32868906
H      -2.70732558     -0.26644252      0.63969603
H      -1.24330337     -2.24494671      0.32354887
H       1.12693254     -1.95038155     -0.29762821
