33
CC(C)Cc1ccc(C(C)C(=O)O)cc1
C      -3.11350101     -1.40607223     -0.58998861
C      -3.24028047      0.08986825     -0.29061576
C      -4.69752924      0.42901087      0.03247768
C      -2.33229143      0.52456634      0.87649187
C      -0.85680912      0.42978445      0.56931809
C      -0.25189469      1.34265722     -0.30250799
C       1.11220288      1.25385639     -0.59134007
C       1.90151449      0.24917836     -0.01490733
C       3.38150892      0.16626739     -0.34036218
C       3.73803739     -1.14204786     -1.04967426
C       4.24130386      0.34570984      0.89697576
O       4.66792574     -0.53185790      1.63114198
O       4.51226170      1.64137174      1.16229754
C       1.29305412     -0.66173143      0.86106232
C      -0.07096231     -0.57200035      1.14968870
H      -3.79988653     -1.70015885     -1.39141715
H      -2.10130599     -1.66212761     -0.91817554
H      -3.34853825     -2.00944694      0.29343275
H      -2.96233541      0.64278766     -1.19688639
H      -5.04016215     -0.10056573      0.92802819
H      -4.81737478      1.50355740      0.20664552
H      -5.35530465      0.15139020     -0.79801370
H      -2.54925614      1.56660320      1.14760454
H      -2.56593618     -0.06671278      1.77171288
H      -0.84094183      2.13295484     -0.76263527
H       1.55253335      1.98042941     -1.27095741
H       3.65124650      0.97553724     -1.03273666
H       4.80110090     -1.15884755     -1.31496641
H       3.54774407     -2.01829714     -0.41985498
H       3.15645744     -1.25955202     -1.97067698
H       5.02575883      1.60896826      1.99626321
H       1.87693360     -1.45093839      1.33205401
H      -0.51527360     -1.29414228      1.83109397
