33
Cc1c2ccccc2cc2ccc3ccccc3c12
C       0.18122618      2.06501995     -1.14863152
C       0.60137351      0.81253198     -0.40634394
C       2.01069787      0.62449932     -0.18366831
C       3.00397290      1.61570522     -0.39940404
C       4.36363281      1.37206747     -0.18388946
C       4.77772970      0.12563456      0.25682449
C       3.82940868     -0.86671939      0.48683955
C       2.45883184     -0.62530617      0.27793828
C       1.53085859     -1.63876435      0.51195753
C       0.15168338     -1.43604000      0.37671247
C      -0.67803708     -2.52947473      0.63457704
C      -2.05754194     -2.42251540      0.55054483
C      -2.65320574     -1.19749991      0.27571364
C      -4.05807214     -1.12952939      0.27341238
C      -4.71988003      0.07640572      0.08259409
C      -3.97703373      1.23011218     -0.08269868
C      -2.57779648      1.16386956     -0.09272513
C      -1.84829741     -0.04936238      0.03474243
C      -0.38384038     -0.17937624     -0.00854934
H      -0.00824740      2.88346268     -0.44869664
H       0.94353119      2.38592874     -1.86603493
H      -0.69104224      1.87847913     -1.78142766
H       2.72901371      2.61623673     -0.72362940
H       5.09120682      2.16004905     -0.35882368
H       5.83181013     -0.07494352      0.42621550
H       4.16923730     -1.83944105      0.83675030
H       1.89568907     -2.61445554      0.83240729
H      -0.25568405     -3.49709029      0.90049881
H      -2.66100087     -3.30636616      0.74562404
H      -4.65391248     -2.02508429      0.43992324
H      -5.80514461      0.11535653      0.09207081
H      -4.47472396      2.19011361     -0.19201449
H      -2.06644315      2.11649641     -0.15880949
