52
C[C@]1(O)CC[C@H]2[C@@H]3CCC4=CC(=O)CC[C@]4(C)[C@H]3CC[C@@]21C
C       3.47725837     -1.81681423     -1.68173345
C       3.52952376     -0.63119188     -0.70989990
O       4.58616954      0.21652326     -1.15480719
C       3.81654138     -1.11867830      0.73582454
C       2.48782370     -1.03579724      1.50991951
C       1.44019967     -0.72730815      0.44505024
C       0.09866319     -0.12959648      0.89009381
C      -0.61088771     -1.04079877      1.90068510
C      -1.95367262     -0.45732457      2.32070645
C      -2.84266831     -0.16694357      1.13449898
C      -4.11188132     -0.61248384      1.13236493
C      -5.06329285     -0.25533372      0.05555488
O      -6.20222704     -0.71521930      0.07807141
C      -4.61454119      0.73660123     -0.98383682
C      -3.12947469      0.56980969     -1.27148729
C      -2.22847654      0.65987667     -0.00368199
C      -2.15651071      2.13356910      0.45561024
C      -0.80534505      0.08297655     -0.36441588
C      -0.07070631      0.87460231     -1.48046655
C       1.32243424      0.30953304     -1.81337447
C       2.19846188      0.16854060     -0.55762883
C       2.51064185      1.59031160     -0.00453260
H       2.69075703     -2.53531280     -1.43603958
H       4.43299376     -2.35476584     -1.68126892
H       3.33122936     -1.47227703     -2.71144448
H       5.41647697     -0.28762099     -1.10536977
H       4.19587880     -2.14703940      0.74536221
H       4.57619145     -0.50068490      1.22897628
H       2.27558167     -1.97487931      2.03134459
H       2.53697131     -0.24362329      2.26547979
H       1.20326242     -1.68567529     -0.04173404
H       0.27849894      0.83117778      1.38421946
H       0.01014220     -1.17028207      2.79465141
H      -0.76011868     -2.03938420      1.46983645
H      -2.43649139     -1.15342951      3.01761782
H      -1.79111075      0.47282362      2.87912009
H      -4.52912139     -1.20637200      1.93836837
H      -5.18092982      0.55568408     -1.90409101
H      -4.84939055      1.74589850     -0.63170102
H      -2.98644812     -0.40852806     -1.75161485
H      -2.83382115      1.32375365     -2.01079965
H      -3.12406251      2.48496151      0.83291779
H      -1.43022831      2.28236173      1.26064180
H      -1.87571958      2.79932904     -0.36718695
H      -0.97586758     -0.92265770     -0.78285135
H      -0.66233297      0.85510847     -2.40247714
H       0.02554933      1.92845817     -1.20259129
H       1.17458880     -0.66479251     -2.29401739
H       1.81347371      0.95112007     -2.55473942
H       1.61590027      2.13783761      0.30154547
H       3.00509362      2.20022824     -0.76982711
H       3.17501991      1.56372843      0.86515729
