13
Nc1ccncc1
N       2.06883455     -0.20831381      0.30166109
C       0.69590518     -0.09025269      0.05324619
C      -0.18680591     -1.07568660      0.48682474
C      -1.54869074     -0.86798637      0.32871023
N      -2.08217114      0.25578933     -0.19336509
C      -1.21054119      1.22310403     -0.54635148
C       0.16578435      1.10470387     -0.42560640
H       2.64969024      0.37120508     -0.29658080
H       2.40097570     -1.16682936      0.34704229
H       0.16983080     -1.99251391      0.94113597
H      -2.26740034     -1.62105673      0.63829890
H      -1.66032970      2.13302052     -0.93267552
H       0.80491821      1.93481662     -0.70234013
