27
CNC(=O)O/N=C(\SC)C(=O)N(C)C
C       4.92257026     -0.44248702      0.87581644
N       3.71319883      0.11961835      0.34010782
C       2.47814283     -0.36019495      0.69062168
O       2.29699816     -1.35357013      1.38315272
O       1.50478650      0.44157273      0.14903494
N       0.22577567      0.00049320      0.54316677
C      -0.70200134      0.57707121     -0.14572380
S      -0.60331553      1.74205227     -1.42565216
C      -0.52951024      3.23417002     -0.41023376
C      -2.17323289      0.27930600      0.03692274
O      -2.85541616      1.09796289      0.64764735
N      -2.65569620     -0.92961261     -0.47813818
C      -4.00710730     -1.32437540     -0.12933751
C      -1.77531313     -1.97807483     -0.97063220
H       4.84505211     -1.53139523      0.93530012
H       5.08339325     -0.03458273      1.87719203
H       5.75438595     -0.16259816      0.22543584
H       3.73191148      1.01681073     -0.12312434
H      -1.44701702      3.35668862      0.17065730
H      -0.41352647      4.10569950     -1.06000110
H       0.32512093      3.19352544      0.27061538
H      -4.45533566     -1.85989316     -0.97113780
H      -3.96637625     -1.97978962      0.74575064
H      -4.62955380     -0.45674767      0.10615801
H      -1.45306553     -2.59081530     -0.12372403
H      -2.31733450     -2.59860469     -1.69018964
H      -0.89753396     -1.56222946     -1.46968525
