52
O=C(O)COCCN1CCN(C(c2ccccc2)c2ccc(Cl)cc2)CC1
O       7.02012598     -2.61165466     -1.39694703
C       5.90158044     -2.12410402     -1.45586347
O       5.51387596     -1.44868651     -2.55629692
C       4.82349957     -2.23829433     -0.38287947
O       3.81690360     -1.23552875     -0.35925203
C       4.30786536      0.02140619      0.11906474
C       3.16251055      1.05046713      0.15634871
N       2.37277496      1.04778977      1.40641485
C       1.35260455      2.11787904      1.38781887
C       0.13968093      1.85045120      0.46092422
N      -0.53382946      0.55645808      0.73681658
C      -1.61989653      0.28740660     -0.25365381
C      -2.67019730      1.40415929     -0.33794427
C      -3.08419382      1.88184362     -1.59347166
C      -4.05189939      2.88383337     -1.69194333
C      -4.62298905      3.41926822     -0.53952408
C      -4.22932717      2.95347791      0.71273342
C      -3.26259509      1.95159048      0.81349074
C      -2.33027778     -1.05754751     -0.03227958
C      -2.76466928     -1.46261317      1.24304310
C      -3.42606971     -2.67996976      1.42051283
C      -3.66546473     -3.50223136      0.32302698
Cl     -4.47940847     -5.00278663      0.53981399
C      -3.25052129     -3.11827132     -0.94991177
C      -2.58836970     -1.90064807     -1.12766380
C       0.49164151     -0.51908457      0.71109932
C       1.67609959     -0.22854454      1.66103787
H       6.28910847     -1.49307643     -3.15325822
H       5.31212243     -2.28762861      0.59695245
H       4.31777433     -3.19479835     -0.55150450
H       5.08044893      0.38416133     -0.56812870
H       4.75867145     -0.09556272      1.11178729
H       2.52704886      0.91484206     -0.72584776
H       3.62978427      2.03997687      0.07380078
H       0.98338877      2.25150867      2.41372770
H       1.81477162      3.07583206      1.11851898
H       0.46637229      1.89633015     -0.58591213
H      -0.55637535      2.68189201      0.61444086
H      -1.12954589      0.23328897     -1.23750571
H      -2.65706681      1.47270830     -2.50603654
H      -4.36352712      3.24382678     -2.66895911
H      -5.37762689      4.19738134     -0.61705789
H      -4.67517583      3.36817483      1.61287758
H      -2.96134540      1.60249856      1.79859621
H      -2.57752460     -0.82901465      2.10757615
H      -3.75004100     -2.97646060      2.41413488
H      -3.44158666     -3.75831294     -1.80686852
H      -2.27753897     -1.61185497     -2.12927381
H       0.05460896     -1.46832090      1.03865699
H       0.86570308     -0.67306739     -0.30906369
H       2.37603773     -1.07003451      1.65588973
H       1.29205912     -0.20035555      2.69053384
