39
CN(C)CCc1c[nH]c2ccc(Cn3cncn3)cc12
C       4.66662153      0.87744243      1.82128313
N       3.74472911      1.24802231      0.74524115
C       4.50615695      1.74661758     -0.40406565
C       2.89768223      0.11096361      0.32889813
C       1.88919747     -0.33469143      1.40294486
C       0.93716666     -1.37152700      0.88600976
C       1.05586457     -2.74009943      1.03157677
N      -0.01591125     -3.33252308      0.42007478
C      -0.83782552     -2.37721112     -0.13023860
C      -2.03133696     -2.51965695     -0.84502848
C      -2.66485846     -1.35445129     -1.28838178
C      -2.13104255     -0.08525675     -1.02686091
C      -2.84003039      1.15519069     -1.51185861
N      -4.11169558      1.34877256     -0.83957443
C      -4.32403542      1.65046327      0.47077081
N      -5.61119951      1.80150683      0.68382848
C      -6.15370215      1.57690787     -0.54931329
N      -5.27659579      1.30376166     -1.51910780
C      -0.92589409      0.02512623     -0.30863096
C      -0.26820750     -1.13638142      0.14893139
H       5.31046415      0.03538705      1.54281167
H       4.12447918      0.61509624      2.73493541
H       5.30854013      1.72564899      2.08617600
H       5.17620243      0.98446736     -0.81839995
H       5.10711144      2.61774891     -0.11972458
H       3.83025548      2.08212831     -1.19863022
H       2.32639065      0.41232984     -0.55967936
H       3.51752040     -0.74271607      0.02198942
H       2.41418836     -0.74511456      2.27365183
H       1.31826509      0.53160684      1.76031420
H       1.81071363     -3.34124895      1.52109734
H      -0.18582201     -4.32772852      0.37634832
H      -2.45899979     -3.49592251     -1.04988353
H      -3.59874301     -1.44839643     -1.84336572
H      -3.02084274      1.08807577     -2.59094149
H      -2.24538017      2.05819727     -1.33192437
H      -3.53230310      1.74200572      1.20118557
H      -7.21745082      1.61716837     -0.74559280
H      -0.48967265      0.99828979     -0.09840420
