54
COc1cc2c(c(OC)c1OC)-c1ccc(OC)c(=O)cc1[C@@H](NC(C)=O)CC2
C       4.34730222     -3.06010626      0.77732801
O       4.01965070     -2.00342421     -0.11491809
C       2.83655953     -1.34319583      0.09264976
C       1.98752246     -1.54937793      1.18066466
C       0.79404232     -0.81634625      1.31432697
C       0.42782357      0.14173359      0.34336952
C       1.26457842      0.30939210     -0.78422475
O       0.87306939      1.21842345     -1.74072625
C       0.79235745      0.66104963     -3.05195813
C       2.47800546     -0.39365241     -0.87630585
O       3.30774629     -0.19031951     -1.95546054
C       4.26202774      0.82533865     -1.64419341
C      -0.85966267      0.92568553      0.49383803
C      -0.62320054      2.25232269      0.61821352
C      -1.38679554      3.33942154      0.80048672
C      -2.72314915      3.44614654      0.77787844
O      -3.45679089      4.58490058      1.05104784
C      -2.76857121      5.77739037      1.39919578
C      -3.55974236      2.25372439      0.32418079
O      -4.54760444      2.46241096     -0.35837579
C      -3.25320925      0.79491171      0.57845585
C      -2.03074405      0.22846618      0.56449530
C      -2.06362396     -1.31675297      0.67012520
N      -1.56240953     -1.88825720     -0.57345133
C      -1.78418554     -3.19671211     -0.92594649
C      -1.19990926     -3.57970450     -2.25868232
O      -2.41383631     -3.99192888     -0.23650516
C      -1.38293348     -1.87982902      1.94469913
C      -0.14741206     -1.12946592      2.44668909
H       3.58066863     -3.84197499      0.76479192
H       5.28489365     -3.50828907      0.43449745
H       4.51138763     -2.68138411      1.79138632
H       2.22432500     -2.28757459      1.94114650
H      -0.02183031      1.16947059     -3.57778785
H       1.71599652      0.85816148     -3.60334247
H       0.56643339     -0.41145970     -3.04566699
H       4.89401417      0.97043265     -2.52542159
H       3.76916501      1.77818107     -1.42142808
H       4.90758609      0.52773774     -0.81084993
H       0.43967614      2.52889570      0.62017630
H      -0.81857258      4.24972259      0.98542881
H      -3.51544750      6.55354995      1.59113974
H      -2.18340892      5.64044271      2.31432586
H      -2.13460068      6.11848430      0.57440486
H      -4.14528119      0.18050509      0.66499960
H      -3.10356423     -1.66938311      0.72510656
H      -1.11949053     -1.27175729     -1.24180282
H      -0.76242133     -4.57909091     -2.18394277
H      -0.41135670     -2.88647669     -2.56472883
H      -1.99199081     -3.57878540     -3.01173848
H      -2.11721464     -1.87305853      2.76139176
H      -1.11587960     -2.93254631      1.78997495
H       0.35412377     -1.73404739      3.21267377
H      -0.43411629     -0.20200071      2.95836890
