28
O=[N+]([O-])c1ccc2ccc3cccc4ccc1c2c34
O       4.59467767     -0.82599848     -1.28700493
N       3.88091011     -0.92722164     -0.27981225
O       4.09040302     -1.68497568      0.67685051
C       2.71911814     -0.05801189     -0.20573864
C       2.96643509      1.31925943     -0.24702326
C       1.89519863      2.20182386     -0.17033170
C       0.58402863      1.72024795     -0.05766812
C      -0.49047232      2.61408032      0.02086277
C      -1.80149060      2.14915042      0.12901069
C      -2.07240419      0.77703185      0.15908020
C      -3.38820745      0.30313061      0.26499016
C      -3.65009743     -1.06507384      0.29217122
C      -2.59942805     -1.97660525      0.21305115
C      -1.27375267     -1.53107816      0.10670333
C      -0.21382167     -2.43649372      0.02434313
C       1.10289050     -1.98304540     -0.08003847
C       1.41342318     -0.60148881     -0.10157978
C       0.33829208      0.32045180     -0.02569566
C      -1.00064074     -0.14454207      0.08033976
H       3.97980576      1.70503790     -0.33603506
H       2.09073403      3.27237721     -0.19999803
H      -0.31977671      3.68871819     -0.00171776
H      -2.61187208      2.87276903      0.18809385
H      -4.22228859      0.99882174      0.32701130
H      -4.67375104     -1.42127236      0.37452703
H      -2.82414755     -3.04087424      0.23510622
H      -0.39983354     -3.50865369      0.04152868
H       1.88606779     -2.73756509     -0.14102634
