16
S=c1[nH]c2ccccc2[nH]1
S       4.04426134      0.30019500     -0.11020849
C       2.40132949      0.17824445     -0.06543773
N       1.65432429     -0.99953244     -0.18562808
C       0.30316149     -0.67140137     -0.09515750
C      -0.80413217     -1.48293359     -0.15631661
C      -2.04893932     -0.85527019     -0.03222321
C      -2.14791211      0.54374884      0.14658983
C      -1.00445351      1.34868698      0.20560167
C       0.20549465      0.70915763      0.08129603
N       1.49635683      1.23339933      0.09976994
H       2.04152026     -1.92143037     -0.31522548
H      -0.72467095     -2.55400602     -0.29334836
H      -2.95801235     -1.45218342     -0.07375047
H      -3.13150301      1.00017454      0.23969317
H      -1.07657560      2.42030410      0.34243400
H       1.74975067      2.20284653      0.21191129
