42
CC[C@H](c1ccc(O)cc1)[C@@H](CC)c1ccc(O)cc1
C      -0.89813206     -2.67422166      1.72080279
C      -0.21027760     -1.91740526      0.58840308
C      -0.41721666     -0.37945649      0.65631183
C      -1.90524956     -0.04005673      0.57508759
C      -2.67188933     -0.35029603     -0.56067908
C      -4.03050608     -0.02883973     -0.61470546
C      -4.62766884      0.60445916      0.46920146
O      -5.95013706      0.93612106      0.45865021
C      -3.89016810      0.91958442      1.60258778
C      -2.53298568      0.59842495      1.65710703
C       0.41721461      0.37945199     -0.43994074
C       0.21027369      1.91740078     -0.37203300
C       0.89813713      2.67421867     -1.50442626
C       1.90524774      0.04005323     -0.35871584
C       2.53298306     -0.59843474     -1.44073205
C       3.89016664     -0.91958908     -1.38621402
C       4.62766931     -0.60445295     -0.25283183
O       5.95013906     -0.93610829     -0.24228252
C       4.03050705      0.02885067      0.83107276
C       2.67188902      0.35030173      0.77704731
H      -1.98765004     -2.60157291      1.65537664
H      -0.58165681     -2.29183212      2.69640618
H      -0.63577265     -3.73617368      1.67333691
H      -0.55923173     -2.31432564     -0.37243303
H       0.85736190     -2.15426701      0.65206114
H      -0.05015744     -0.05258569      1.63944592
H      -2.21704219     -0.84735693     -1.41433160
H      -4.59968281     -0.27990194     -1.50387115
H      -6.33213859      0.65229318     -0.38770064
H      -4.36970230      1.41348310      2.44271645
H      -1.96994680      0.85113757      2.55258922
H       0.05015673      0.05258050     -1.42307496
H      -0.85736559      2.15426132     -0.43569948
H       0.55921909      2.31432072      0.58880649
H       0.63577703      3.73617042     -1.45696071
H       0.58166963      2.29183049     -2.48003229
H       1.98765415      2.60157021     -1.43899218
H       1.96994263     -0.85115519     -2.33621108
H       4.36970023     -1.41349217     -2.22634081
H       6.33214042     -0.65228130      0.60406879
H       4.59968572      0.27992253      1.72023453
H       2.21704309      0.84736884      1.63069658
