43
CN1[C@H]2CC(OC(=O)[C@H](CO)c3ccccc3)C[C@@H]1C1OC12
C       4.80296913      1.63659817      0.37452360
N       3.47747416      1.05134102      0.21060955
C       3.49545260     -0.42156757      0.05718009
C       2.08963865     -0.85020911      0.52044168
C       0.97384816     -0.17100049     -0.31088903
O      -0.27900301     -0.20293709      0.39974987
C      -0.96976501     -1.37801411      0.36649273
O      -0.58439108     -2.39734656     -0.19607244
C      -2.26283056     -1.26494920      1.15974630
C      -2.99831915     -2.61238485      1.16740100
O      -2.26538144     -3.59596376      1.89859727
C      -3.16267716     -0.15714719      0.63587369
C      -3.53266499      0.90057088      1.48000019
C      -4.35890685      1.92454025      1.01408956
C      -4.82497474      1.90397423     -0.29849382
C      -4.46528198      0.86001621     -1.14773243
C      -3.63903395     -0.16560656     -0.68538669
C       1.28556777      1.30315975     -0.66316501
C       2.77253215      1.51313571     -1.00724056
C       3.19100892      0.56130248     -2.10409393
O       4.56201391      0.14816856     -2.16757194
C       3.65205337     -0.67347151     -1.42484281
H       5.49810889      1.44459201     -0.44619431
H       5.26317277      1.26163767      1.29554210
H       4.71746205      2.72271999      0.49150052
H       4.26966221     -0.91167860      0.65620585
H       1.98679201     -1.93929518      0.44063283
H       1.95381523     -0.61305404      1.58430900
H       0.85355495     -0.71207845     -1.25966175
H      -1.95467829     -1.04832188      2.19198847
H      -3.97175139     -2.51207344      1.66038993
H      -3.18023956     -3.00006224      0.15837453
H      -1.51158204     -3.85770065      1.33344029
H      -3.17891952      0.93784746      2.50850022
H      -4.63863851      2.73967221      1.67675116
H      -5.46837884      2.70217023     -0.65941359
H      -4.82896814      0.84487213     -2.17210543
H      -3.37082632     -0.96811957     -1.36990851
H       0.99778677      1.95392622      0.17389127
H       0.65230448      1.60541659     -1.50699320
H       2.97162914      2.56090166     -1.25413190
H       2.58282128      0.53102268     -2.99255608
H       3.39754391     -1.65460407     -1.78977827
