16
O=C1OCc2ccccc21
O      -1.92655548      2.53834347     -0.15387146
C      -1.65063179      1.35589254     -0.14143494
O      -2.52703707      0.31054215     -0.23722519
C      -1.85541732     -0.96716932     -0.18817539
C      -0.43321747     -0.60044052     -0.04832411
C       0.69265822     -1.39929206      0.04962411
C       1.93784531     -0.77327915      0.17563678
C       2.03988578      0.62878212      0.20178962
C       0.89596985      1.42160199      0.10205391
C      -0.32081471      0.77422121     -0.02150334
H      -2.05619825     -1.50552265     -1.11844064
H      -2.22710829     -1.52652298      0.67466870
H       0.62089583     -2.48263118      0.03009079
H       2.84002287     -1.37700081      0.25454846
H       3.01679780      1.09716518      0.30038489
H       0.95290472      2.50531000      0.12017781
