21
CCc1ccc(C(=O)O)cc1
C      -3.02469164      1.05799506      0.39650641
C      -2.44806537     -0.33647427      0.20588825
C      -0.94979091     -0.30545665      0.03849083
C      -0.10889470     -0.38371780      1.15687358
C       1.27986583     -0.33894643      1.00540041
C       1.84270623     -0.21037865     -0.26924745
C       3.30921960     -0.15778998     -0.48126720
O       3.87194345     -0.04580026     -1.55482861
O       4.00779374     -0.24820839      0.66464250
C       1.00701957     -0.12516748     -1.38859494
C      -0.38085655     -0.17012603     -1.23473725
H      -2.60921242      1.54145838      1.28718716
H      -2.80823266      1.69868200     -0.46508398
H      -4.11152747      1.00505597      0.51519987
H      -2.90727297     -0.81113969     -0.66982284
H      -2.71023859     -0.96674061      1.06441931
H      -0.53101904     -0.47946385      2.15519576
H       1.91182678     -0.40355296      1.88765384
H       4.94180002     -0.20030994      0.37172849
H       1.43305130     -0.02189796     -2.38466743
H      -1.01542419     -0.09802044     -2.11566610
