10
CC(=O)C(=O)O
C      -1.41589241      0.15034996     -0.09524246
C       0.03668929      0.04150736     -0.43609510
O       0.50995478      0.11162334     -1.56696794
C       1.00475706     -0.17450821      0.72263797
O       0.65233959     -0.25944174      1.88081707
O       2.26996789     -0.25305406      0.26872244
H      -1.57753804      1.00422040      0.56722020
H      -1.99338568      0.30249401     -1.01134245
H      -1.75378909     -0.77208180      0.38332292
H       2.26689660     -0.15110926     -0.71307266
