28
CC1NCCOC1c1ccccc1
C      -1.09090371      2.07664288     -0.15646359
C      -1.28091165      0.58907684     -0.46135759
N      -2.72250124      0.27052296     -0.27681105
C      -2.92013678     -1.17310431     -0.48993580
C      -2.00975366     -2.01790970      0.40883157
O      -0.63171851     -1.71201845      0.18053202
C      -0.35939696     -0.31610530      0.42209832
C       1.11766551     -0.09379187      0.15774962
C       1.91837067      0.55673635      1.10949231
C       3.27384459      0.78381010      0.86242005
C       3.84574008      0.36280621     -0.33637308
C       3.06456090     -0.28809757     -1.28856273
C       1.70944906     -0.51529277     -1.04345621
H      -1.27714361      2.29613786      0.90076534
H      -0.07498473      2.40477283     -0.39800972
H      -1.77593659      2.68904286     -0.75406464
H      -1.04769551      0.42582032     -1.52185689
H      -2.98771084      0.49947912      0.68139888
H      -2.71988815     -1.40348857     -1.54317161
H      -3.96840607     -1.42256021     -0.29557867
H      -2.24377062     -1.86512457      1.46916906
H      -2.15383959     -3.08011277      0.18723162
H      -0.56556761     -0.12562920      1.48454281
H       1.49199630      0.89255939      2.05193023
H       3.88455853      1.28774070      1.60695534
H       4.90127587      0.53735778     -0.52676999
H       3.51007256     -0.62412021     -2.22109565
H       1.11273173     -1.03515070     -1.79054553
