43
CN/C(=C\[N+](=O)[O-])NCCSCc1ccc(CN(C)C)o1
C       5.30859702     -0.37378843      1.76892530
N       4.94464927     -1.65455628      1.18813164
C       3.89154173     -1.84359285      0.30456796
C       3.90896037     -2.72094760     -0.72261636
N       5.04295858     -3.54855186     -1.04966062
O       6.10246100     -3.42698499     -0.41841396
O       4.86747195     -4.34204070     -1.98487282
N       2.76398475     -1.07025727      0.54814233
C       1.41173309     -1.30028520      0.04567523
C       0.47032375     -0.17018334      0.48429777
S       0.33509346     -0.07730599      2.30871474
C      -0.50058767      1.53362348      2.44996090
C      -1.87438102      1.50431613      1.89268453
C      -3.08563214      1.05761702      2.37631045
C      -4.04581603      1.34194897      1.37725582
C      -3.36380109      1.93183270      0.33426708
C      -3.78537098      2.48391954     -0.98824898
N      -3.92279908      1.50585724     -2.08296444
C      -2.66294623      0.84162122     -2.40611949
C      -4.98878118      0.53657695     -1.85362689
O      -2.03836560      2.03485195      0.64798864
H       6.20079799     -0.49540861      2.39227047
H       5.53277298      0.35551397      0.98541121
H       4.51360645      0.01761523      2.40923691
H       5.77811934     -2.18185179      0.90559884
H       3.10650903     -2.90305474     -1.41732180
H       2.74606617     -0.81353874      1.53626457
H       1.03815963     -2.26929342      0.39837462
H       1.42270987     -1.32489970     -1.04983265
H       0.84408104      0.78844076      0.10636033
H      -0.52446895     -0.34936109      0.06501981
H      -0.54611691      1.79312275      3.51312580
H       0.10983621      2.30089186      1.96140024
H      -3.25098395      0.59504208      3.33857929
H      -5.10739623      1.14671916      1.40682265
H      -3.07383121      3.26145411     -1.29715085
H      -4.74017511      3.01341245     -0.86159823
H      -2.77691407      0.24150997     -3.31636577
H      -2.31570469      0.17381138     -1.61038784
H      -1.87726795      1.57638968     -2.61298139
H      -5.16453797     -0.05485875     -2.75867827
H      -4.76107684     -0.15881313     -1.03975319
H      -5.93347878      1.04348590     -1.62599117
