26
CN1C2CCCC1CC(=O)C2
C       2.28119697      0.63787524     -0.49980677
N       0.89707885      0.88363493     -0.10132573
C       0.53041311      0.21184412      1.15637480
C       0.42916666     -1.32045989      1.00960098
C      -0.46644487     -1.76600634     -0.14392552
C      -0.20309809     -0.95617092     -1.41123388
C      -0.07438249      0.56030641     -1.15928541
C      -1.41535859      1.21083172     -0.79720748
C      -1.83998804      0.87301474      0.61193318
O      -3.02985950      0.73200361      0.90147984
C      -0.76936090      0.83863012      1.67620893
H       2.96736663      0.97005176      0.28719788
H       2.52863383      1.22283358     -1.39263655
H       2.49584146     -0.41325152     -0.71404042
H       1.29686211      0.42194334      1.91439998
H       1.43325458     -1.73384229      0.85156755
H       0.06557281     -1.76521540      1.94387488
H      -1.51924077     -1.67538023      0.14467728
H      -0.30514824     -2.83138686     -0.34637156
H       0.72130187     -1.32364004     -1.87437895
H      -1.00064113     -1.15090015     -2.13847630
H       0.24837392      1.02604617     -2.10008435
H      -1.33667884      2.30295340     -0.85885023
H      -2.19812258      0.88865644     -1.49266031
H      -1.14443005      0.28155522      2.54175013
H      -0.59230869      1.87407284      1.99121803
