24
CC(=O)CCc1ccc(O)cc1
C      -2.60816067     -0.20943892      1.16142850
C      -2.14622234      1.07650982      0.52965550
O      -2.03867942      2.11220437      1.18718190
C      -1.82636254      1.04121576     -0.95017471
C      -0.38565366      1.46296549     -1.21927751
C       0.61278137      0.44564501     -0.71999357
C       0.91561316     -0.68932583     -1.48485881
C       1.81702496     -1.64123554     -1.00669784
C       2.41498935     -1.46211608      0.23460239
O       3.28835946     -2.41754457      0.66286506
C       2.12674515     -0.34418933      1.00985639
C       1.22462934      0.60840623      0.53168664
H      -3.53799892     -0.53529976      0.68893082
H      -1.83675990     -0.97459496      1.04519105
H      -2.78942411     -0.05141248      2.22815722
H      -2.02496763      0.03802329     -1.34387992
H      -2.52183992      1.72587624     -1.44869140
H      -0.17582322      2.44008532     -0.76624564
H      -0.24160351      1.59610934     -2.29894768
H       0.45419391     -0.83918374     -2.45815036
H       2.05350606     -2.51911883     -1.60110691
H       3.64152348     -2.14683181      1.52615009
H       2.58753435     -0.19651416      1.98130916
H       0.99659524      1.47976514      1.14419688
