18
CCCCCS
C      -2.78132781      0.17589971     -0.39439801
C      -1.37008711      0.69826309     -0.61127580
C      -0.32124942     -0.33897707     -0.21060426
C       1.09844976      0.19037247     -0.43030722
C       2.13760979     -0.85219413     -0.02732398
S       3.81840177     -0.21989855     -0.29600378
H      -2.96335482     -0.72258719     -0.99266506
H      -2.95050044     -0.07181787      0.65838496
H      -3.51504769      0.93339577     -0.68725581
H      -1.23156657      1.61392016     -0.02469767
H      -1.24433936      0.96673743     -1.66664194
H      -0.45413676     -0.60698511      0.84470528
H      -0.46697535     -1.25422596     -0.79732962
H       1.22342504      0.45769823     -1.48724792
H       1.23565770      1.10653749      0.15789874
H       2.01502094     -1.76571957     -0.61783278
H       2.03126822     -1.11494104      1.03002024
H       3.73875209      0.80452213      0.56595741
