67
COc1cccc2c1C(=O)c1c(O)c3c(c(O)c1C2=O)C[C@@](O)(C(C)=O)C[C@@H]3O[C@H]1C[C@H](N)[C@H](O)[C@H](C)O1
C       5.80752403     -4.96738346     -0.96545900
O       4.98793460     -3.82419266     -0.76475845
C       5.50262681     -2.75298455     -0.08734911
C       6.79252566     -2.74668544      0.46426778
C       7.26908495     -1.63321601      1.15527885
C       6.45960918     -0.51388494      1.30478716
C       5.16828712     -0.50549659      0.76056174
C       4.68048499     -1.61368628      0.06225525
C       3.30566087     -1.54564160     -0.50445675
O       2.82494692     -2.45265418     -1.17769475
C       2.45788510     -0.35252277     -0.27295258
C       1.14046425     -0.30010488     -0.76812568
O       0.60619150     -1.33517709     -1.49994412
C       0.31039733      0.81769943     -0.54598955
C       0.82299841      1.91120751      0.17850333
C       2.15076214      1.86467485      0.63975380
O       2.61738970      2.98082293      1.29213143
C       2.96040383      0.73507239      0.43113203
C       4.33982127      0.69870033      0.94531964
O       4.79023281      1.67891781      1.53339783
C       0.00280851      3.16413637      0.42371293
C      -1.49826445      3.01552621      0.15818499
O      -2.09942447      2.37808679      1.29934532
C      -2.20549223      4.38075860      0.02190049
C      -1.58398244      5.45825408     -0.82833202
O      -3.28540638      4.57662813      0.59238350
C      -1.75556068      2.19372873     -1.10549388
C      -1.12216045      0.80015479     -1.04738822
O      -1.85962108     -0.05205248     -0.16833671
C      -2.67260399     -1.00055762     -0.85226784
C      -2.96278719     -2.17201713      0.08435736
C      -3.84870276     -1.72623853      1.24722713
N      -4.22347438     -2.90354023      2.06385082
C      -5.11867372     -1.04106917      0.70865119
O      -5.95898665     -2.03834326      0.10625938
C      -4.74742503      0.06089583     -0.29877133
C      -5.97669521      0.65046579     -0.98095595
O      -3.87457123     -0.40907838     -1.33784827
H       6.70008862     -4.71611810     -1.54743462
H       5.22940586     -5.69628620     -1.54147756
H       6.07366588     -5.43368764     -0.01152434
H       7.45652504     -3.60174099      0.37519156
H       8.27156604     -1.64139497      1.57858795
H       6.83889964      0.35054970      1.84785208
H       1.28260354     -2.04937646     -1.57112043
H       3.54250431      2.81177093      1.58354268
H       0.43473661      3.93598548     -0.22286760
H       0.14182894      3.48464676      1.46409982
H      -3.00822944      2.73586638      1.36876660
H      -2.33393488      6.22531603     -1.04370124
H      -0.75396167      5.92135328     -0.29002659
H      -1.23939713      5.04693872     -1.77932717
H      -2.83450255      2.10074477     -1.27195862
H      -1.34732880      2.72647146     -1.97433175
H      -1.12328145      0.41103509     -2.07452606
H      -2.13253491     -1.40623345     -1.71579421
H      -3.46476192     -2.96540909     -0.48397053
H      -2.02174114     -2.58107524      0.47234599
H      -3.29494522     -1.02272786      1.88081492
H      -4.69796298     -2.58028906      2.90883753
H      -3.36936431     -3.36039515      2.38831585
H      -5.69240463     -0.60790912      1.53686613
H      -5.76924801     -2.85490601      0.61506833
H      -4.23893221      0.86968728      0.23819301
H      -6.46691430     -0.08555637     -1.62733979
H      -5.68527559      1.48556756     -1.62793751
H      -6.70131098      1.01796890     -0.24788512
