12
CCCS
C      -1.54963082     -0.11925231     -0.15633871
C      -0.06946726     -0.24788434     -0.48519922
C       0.78198930      0.55429283      0.49317622
S       2.54472539      0.39750154      0.08688447
H      -2.14731165     -0.69970624     -0.86614621
H      -1.76152103     -0.49211099      0.85088179
H      -1.87469489      0.92458810     -0.21239310
H       0.20713112     -1.30868194     -0.45222723
H       0.09493198      0.10299671     -1.51124452
H       0.51322446      1.61486081      0.45726014
H       0.62967788      0.20067164      1.51794249
H       2.63094554     -0.92727581      0.27740389
