14
C1CSCCS1
C       1.28491930      0.89071385     -0.23836536
C       1.46675662     -0.56823573      0.16414426
S       0.17195995     -1.16865818      1.29760408
C      -1.28492011     -0.89071289      0.23836632
C      -1.46675472      0.56823529     -0.16414653
S      -0.17195803      1.16865293     -1.29760761
H       1.22289753      1.54403471      0.63900711
H       2.16079687      1.21219322     -0.81200647
H       1.51079921     -1.22366460     -0.71274283
H       2.42244132     -0.67506495      0.68838576
H      -2.16079695     -1.21218686      0.81201293
H      -1.22290598     -1.54403795     -0.63900428
H      -2.42244025      0.67506558     -0.68838663
H      -1.51079475      1.22366558      0.71273924
