57
O=C1CCc2ccc(OCCCCN3CCN(c4cccc(Cl)c4Cl)CC3)cc2N1
O      -4.70564502      0.74000763      4.15482184
C      -5.09112217      0.34477014      3.05632188
C      -6.34139252     -0.48846125      2.88756047
C      -7.02421428     -0.22604757      1.55451982
C      -6.03638021     -0.26405473      0.42271338
C      -6.42270397     -0.63788694     -0.86562633
C      -5.50186398     -0.57245562     -1.91360487
C      -4.20211297     -0.10502388     -1.69775537
O      -3.41062209     -0.09187504     -2.81174223
C      -2.24384202      0.73092362     -2.80053081
C      -1.01127857     -0.10505880     -2.46241942
C       0.25536289      0.75030365     -2.45810266
C       1.49842004     -0.09382077     -2.14542762
N       2.73732386      0.68513677     -2.27840264
C       2.93858646      1.66820720     -1.18321706
C       3.31444828      1.06538843      0.19406360
N       4.49106408      0.18007836      0.05472078
C       5.04873497     -0.20182908      1.29034622
C       4.72132007     -1.43093768      1.89091241
C       5.26468195     -1.80897869      3.12156227
C       6.14670086     -0.96126590      3.78383769
C       6.49246424      0.26720271      3.21702641
Cl      7.59751831      1.26071551      4.10443261
C       5.95146661      0.65184661      1.97811658
Cl      6.42267715      2.16675758      1.25456048
C       4.31348341     -0.85830786     -0.97682510
C       3.93038117     -0.19958587     -2.32567199
C      -3.81302760      0.26883769     -0.41145574
C      -4.72750737      0.17826030      0.64172372
N      -4.33528993      0.55125432      1.93210769
H      -6.04765155     -1.54197702      2.97148326
H      -7.03194309     -0.26328278      3.70707365
H      -7.81458970     -0.97109265      1.40132898
H      -7.49653923      0.76492274      1.56228617
H      -7.43808744     -0.97192695     -1.06727126
H      -5.80541317     -0.87066185     -2.91500497
H      -2.13622124      1.12727178     -3.81721931
H      -2.35278900      1.60559416     -2.14863860
H      -1.14009288     -0.59256228     -1.48906028
H      -0.91895032     -0.91885673     -3.19267236
H       0.37369402      1.23022891     -3.43787006
H       0.13592244      1.54811971     -1.71699535
H       1.51936754     -0.91854957     -2.86930854
H       1.40272555     -0.55012150     -1.15401526
H       3.75080755      2.33996120     -1.49406007
H       2.06218561      2.31461262     -1.07071579
H       3.51743439      1.89137364      0.88549691
H       2.46712815      0.50112742      0.60242179
H       4.02270954     -2.11133690      1.41294004
H       4.99335215     -2.76471206      3.56420836
H       6.56809175     -1.26317014      4.74030725
H       5.24930781     -1.41344960     -1.11339180
H       3.53261393     -1.57213548     -0.68939951
H       3.79378309     -0.97604697     -3.08871496
H       4.77987246      0.40484520     -2.67168952
H      -2.80432589      0.60716026     -0.20558901
H      -3.44002414      0.99755698      2.08550424
