50
C[Si]1(C)O[Si](C)(C)O[Si](C)(C)O[Si](C)(C)O[Si](C)(C)O1
C       2.39996113     -0.12960682     -2.00554643
Si      2.75176316     -0.63804364     -0.22894134
C       4.58245876     -1.07620639     -0.13353903
O       2.43454944      0.61359461      0.83138813
Si      1.35936478      1.87788396      1.02112824
C       1.81706469      3.29377600     -0.12172703
C       1.41847729      2.51485120      2.78369088
O      -0.14331259      1.28441995      0.66953207
Si     -1.70128334      1.65737175      0.25840003
C      -1.75384267      2.80602325     -1.22308834
C      -2.57511344      2.50560416      1.68402879
O      -2.46070087      0.21212637     -0.09827399
Si     -2.21448355     -1.15095584     -1.03195160
C      -3.48664225     -2.46279793     -0.59671963
C      -2.43016134     -0.73513808     -2.85299936
O      -0.66943794     -1.71559102     -0.76774369
Si      0.26574113     -2.46213940      0.39221968
C      -0.32566507     -2.08223885      2.13318144
C       0.15868673     -4.33053261      0.17035795
O       1.84660019     -1.97164071      0.19304598
H       1.35030065      0.15118801     -2.13192088
H       2.61748716     -0.95525187     -2.68963760
H       3.02036243      0.72497583     -2.29093402
H       4.81734965     -1.89354847     -0.82128357
H       4.84744582     -1.38982201      0.88028443
H       5.19737223     -0.21165383     -0.39966823
H       1.14730921      4.14562776      0.02838958
H       1.74923830      2.98560892     -1.16898041
H       2.84101908      3.62735315      0.07122335
H       1.15983447      1.71970328      3.48959973
H       2.42073621      2.87836727      3.02918104
H       0.71174839      3.33845399      2.92191187
H      -2.78567139      2.96689694     -1.54942141
H      -1.19148828      2.38406487     -2.06122891
H      -1.31917319      3.77893731     -0.97605255
H      -3.61773269      2.71581725      1.42821079
H      -2.56235389      1.87049262      2.57477578
H      -2.08525649      3.45210103      1.93143702
H      -3.42082403     -2.73087222      0.46179272
H      -4.49843072     -2.09653632     -0.79416224
H      -3.32646921     -3.36724851     -1.19101136
H      -2.31179163     -1.63226541     -3.46775438
H      -3.42486357     -0.31901798     -3.03786686
H      -1.68447368     -0.00113973     -3.17197363
H      -0.27385277     -1.01148581      2.34445732
H       0.29640607     -2.60180660      2.86829768
H      -1.36028064     -2.40909565      2.27255409
H      -0.87395040     -4.67274914      0.28636772
H       0.50768754     -4.61663603     -0.82617390
H       0.77829114     -4.84121863      0.91314404
