28
COP(=O)(OC)O/C(=C\Cl)c1cc(Cl)c(Cl)cc1Cl
C       1.10531021      1.26222376     -2.53785351
O       0.85059202      0.10530141     -1.76813003
P       1.51081177      0.06239846     -0.29689058
O       1.25644526      1.27895882      0.53922084
O       3.06666791     -0.22051949     -0.61147407
C       3.92499722     -0.31850174      0.50670229
O       0.99091337     -1.33674063      0.30848853
C      -0.27236088     -1.64226219      0.77353360
C      -0.59307555     -2.87630949      1.17955534
Cl      0.49826843     -4.19930153      1.16796138
C      -1.27410487     -0.56699582      0.82306787
C      -1.99498936     -0.27184439     -0.34493008
C      -2.94429988      0.75527163     -0.35634156
Cl     -3.77324379      1.06305437     -1.83999759
C      -3.19033043      1.49053234      0.80787628
Cl     -4.35090179      2.76879153      0.86620758
C      -2.48860617      1.19655236      1.97934547
C      -1.53683207      0.17336899      1.98857814
Cl     -0.70411574     -0.13787653      3.47166158
H       0.66313406      1.12872278     -3.52827626
H       2.18177760      1.41759409     -2.64891247
H       0.64970685      2.13527852     -2.06300756
H       4.93400990     -0.54836973      0.15550824
H       3.94692389      0.63110264      1.04799512
H       3.59169348     -1.11886510      1.17284673
H      -1.56589482     -3.16438142      1.55767255
H      -1.80463173     -0.83648096     -1.25731371
H      -2.67786489      1.76929733      2.88449174
