22
Nc1nc(N)nc(NC2CC2)n1
N      -3.22866599     -1.91282164     -0.91149369
C      -2.33817593     -0.93549678     -0.50864635
N      -2.80113368      0.01971099      0.27742917
C      -1.91320868      0.93861688      0.61303546
N      -2.33487206      1.95440188      1.44968624
N      -0.64623851      0.94433961      0.24151928
C      -0.28301303     -0.05276576     -0.55763994
N       1.03505944     -0.13688908     -1.02513613
C       2.11098818      0.50399814     -0.28021489
C       3.53994458      0.09277807     -0.50039605
C       2.85743172     -0.22956692      0.79746844
N      -1.10019336     -1.01653683     -0.96471515
H      -2.93024463     -2.31649991     -1.78852132
H      -4.17417382     -1.55781308     -0.86691168
H      -1.54693004      2.34083992      1.95078296
H      -3.12910450      1.65104199      1.99558395
H       1.16398254     -1.07586856     -1.38504586
H       1.94025103      1.56861329     -0.13007462
H       3.74520919     -0.72170819     -1.18419896
H       4.29302681      0.87223575     -0.50004559
H       3.14438633      0.33153670      1.67907847
H       2.59567439     -1.26214645      0.99433744
