65
CC[C@H](C)C(=O)O[C@H]1C[C@@H](C)C=C2C=C[C@H](C)[C@H](CC[C@@H]3C[C@@H](O)CC(=O)O3)[C@H]21
C      -4.70266068      1.24501575      2.96687677
C      -3.95914548      0.24207158      2.09674783
C      -2.43819011      0.30012640      2.28057482
C      -1.81324218      1.57282600      1.70951136
C      -1.79506443     -0.93990842      1.68451634
O      -1.40026225     -1.88241397      2.35927669
O      -1.73131746     -0.87016153      0.32664648
C      -1.04481216     -1.95182105     -0.33837243
C      -1.98386908     -3.14460561     -0.56126491
C      -3.11386034     -2.86445506     -1.56174589
C      -4.32886268     -2.20940188     -0.90308974
C      -2.66355334     -2.02209768     -2.72322303
C      -1.48442749     -1.37909161     -2.79010115
C      -1.16989757     -0.58140665     -3.95800251
C      -0.07421898      0.18320713     -4.03972679
C       0.93368385      0.32739796     -2.92987981
C       2.20790880     -0.42458069     -3.33058707
C       0.33472535     -0.09497062     -1.55117255
C       1.38844442     -0.11079589     -0.41539830
C       2.05516992      1.25489982     -0.18011158
C       3.07086255      1.20613006      0.97202574
C       3.58124529      2.60134824      1.29624306
C       4.64809063      2.49824308      2.36789229
O       4.05065184      2.03955616      3.57837607
C       5.76288967      1.57085628      1.93635027
C       5.31558713      0.30881308      1.24778169
O       6.05494276     -0.67029328      1.18604687
O       4.14779714      0.33782993      0.57044869
C      -0.43666804     -1.45037620     -1.67924462
H      -5.78273544      1.12878652      2.83354528
H      -4.44428723      2.27463620      2.70234207
H      -4.47467091      1.09191024      4.02679140
H      -4.22129937      0.42283442      1.04797659
H      -4.32057906     -0.76496616      2.33957518
H      -2.20436479      0.27348262      3.35407481
H      -2.12758819      2.45519623      2.27529239
H      -0.71969494      1.52152436      1.75458159
H      -2.09494589      1.72448690      0.66162386
H      -0.21414964     -2.29413352      0.29314336
H      -2.41299603     -3.47942146      0.39060247
H      -1.38280453     -3.98159821     -0.94229469
H      -3.44702277     -3.83275476     -1.95505332
H      -4.64302245     -2.76082591     -0.01204938
H      -4.12484543     -1.17642861     -0.61525394
H      -5.17746455     -2.19125182     -1.59743465
H      -3.37487423     -1.93803001     -3.54352803
H      -1.85657282     -0.61015999     -4.80112599
H       0.11040486      0.74358023     -4.95338047
H       1.17924362      1.39561625     -2.87142833
H       3.02907145     -0.22381458     -2.63724778
H       2.55091264     -0.11026472     -4.32325733
H       2.05093440     -1.50744204     -3.36457563
H      -0.40604329      0.67493864     -1.28422772
H       0.91181957     -0.39603150      0.52758728
H       2.14335011     -0.87988121     -0.61541523
H       2.57394301      1.57454834     -1.08972148
H       1.27920906      1.99756521      0.03906857
H       2.59139524      0.75598550      1.85082737
H       2.75061728      3.22587619      1.64792660
H       4.00934301      3.07198883      0.40093067
H       5.05446771      3.49515733      2.57367223
H       4.72306939      2.07441597      4.28265119
H       6.41458283      2.09256073      1.22522174
H       6.36126731      1.27855111      2.80678536
H       0.28438302     -2.21857863     -1.99650915
