15
Nc1ccc(O)cc1
N      -2.55681618      0.12690483     -0.28093837
C      -1.17716812      0.05834358     -0.05534018
C      -0.49064680      1.16544583      0.45136031
C       0.90118020      1.14735703      0.56980968
C       1.61278514      0.03592855      0.13863057
O       2.96938638      0.05823860      0.26857711
C       0.95513328     -1.05206511     -0.42315333
C      -0.43824215     -1.02694804     -0.53703157
H      -3.00913966     -0.77983084     -0.33799381
H      -3.04203195      0.76090838      0.34619918
H      -1.03393747      2.05389957      0.76072733
H       1.42596688      2.00356642      0.98293054
H       3.32708252     -0.77095839     -0.08831760
H       1.50140624     -1.91527712     -0.78842777
H      -0.94495832     -1.86551328     -1.00703211
