19
CC(=O)Nc1nnc(S(N)(=O)=O)s1
C      -3.41280156      0.62003339     -0.09022086
C      -3.18562281     -0.65197826      0.68235178
O      -4.13652280     -1.30517210      1.11893587
N      -1.92421648     -1.10710212      0.91471642
C      -0.76548317     -0.51530427      0.50807275
N      -0.57460116      0.58720873     -0.17603106
N       0.77115241      0.83758110     -0.38001305
C       1.51712905     -0.10046254      0.16812312
S       3.27180535     -0.17773427      0.15005619
N       3.89627231      1.14517508     -0.68556568
O       3.70669124     -0.01450182      1.51935863
O       3.62620258     -1.33819530     -0.63638668
S       0.65660600     -1.34390146      0.96376210
H      -4.48882859      0.80674511     -0.16469314
H      -3.01701612      0.52530412     -1.10450025
H      -2.95971990      1.46759805      0.43009985
H      -1.86021291     -1.96726033      1.44048897
H       4.46662558      1.71080505     -0.05560229
H       4.41254097      0.82116184     -1.50445304
