13
Oc1cc(Cl)cc(Cl)c1Cl
O       2.27477645     -1.09704233      0.01961388
C       1.03058744     -0.52489699      0.00755210
C      -0.05808179     -1.38893525     -0.06831257
C      -1.34631454     -0.86140958     -0.08390760
Cl     -2.70022380     -1.91838610     -0.17742165
C      -1.55015146      0.51692857     -0.02440166
C      -0.45190483      1.38001199      0.05171926
Cl     -0.77128662      3.07712786      0.12280372
C       0.84871545      0.86205787      0.06816298
Cl      2.24685226      1.87781759      0.16110263
H       2.93337335     -0.37822682      0.07489548
H       0.10472261     -2.46248347     -0.11452743
H      -2.56106452      0.91743665     -0.03727914
