119
C[C@H]1O[C@@H](O[C@H]2[C@@H](O)C[C@H](O[C@H]3[C@@H](O)C[C@H](O[C@H]4CC[C@]5(C)[C@H]6C[C@@H](O)[C@]7(C)[C@@H](C8=CC(=O)OC8)CC[C@]7(O)[C@@H]6CC[C@@H]5C4)O[C@@H]3C)O[C@@H]2C)C[C@H](O)[C@@H]1O
C      11.05039598     -1.51864066      2.72362001
C      11.16276645     -1.07604286      1.26856744
O       9.85409527     -0.60961106      0.88480113
C       9.89901342      0.11897936     -0.34042487
O       8.57489517      0.38198854     -0.80069874
C       8.11410786     -0.49950683     -1.84583051
C       7.74440788     -1.89050477     -1.30729243
O       8.90712709     -2.63021228     -0.93647410
C       6.73811933     -1.77527329     -0.16418508
C       5.78033586     -0.59849953     -0.37887379
O       4.50837626     -0.97561482      0.14610118
C       3.72141317      0.08175122      0.73444879
C       3.14884654      1.11031314     -0.27012586
O       4.12739693      1.68014412     -1.13129655
C       2.04368377      0.46039221     -1.08274402
C       0.89531044      0.07605798     -0.15134304
O      -0.08495357      1.10582270     -0.27019536
C      -1.40238786      0.68522443      0.08238946
C      -2.06547118      1.83562266      0.83051015
C      -3.52404518      1.52260791      1.13855096
C      -4.38138269      1.18014060     -0.11495973
C      -4.54124640      2.46418018     -0.96906493
C      -5.78383014      0.63131987      0.40888068
C      -6.79363421      1.75346496      0.70417249
C      -8.12654679      1.21527967      1.20591481
O      -9.00111033      2.31281872      1.47843795
C      -8.80445206      0.24015783      0.19705754
C      -9.25415349      1.00181713     -1.07027557
C      -9.98640206     -0.48040493      0.96134372
C     -11.33965702     -0.50044052      0.30452751
C     -11.85962841     -1.38621566     -0.54444888
C     -13.21156495     -0.93609049     -0.86284850
O     -13.98259373     -1.51150099     -1.60971327
O     -13.46922628      0.21635029     -0.18792161
C     -12.32202740      0.57559560      0.58049120
C      -9.44356271     -1.88043390      1.33302819
C      -7.94141491     -1.84236149      1.06253368
C      -7.81869137     -0.91709023     -0.15665104
O      -8.34054158     -1.64280023     -1.28276184
C      -6.37736645     -0.45171786     -0.52285501
C      -5.40314144     -1.65325525     -0.65659679
C      -3.92638212     -1.29408019     -0.49680938
C      -3.66109522      0.11824967     -1.01211241
C      -2.15832573      0.37717981     -1.20543708
O       1.28651298      0.00193587      1.22102030
C       2.53835480     -0.65220492      1.42848504
C       2.76129273     -0.74463004      2.93258249
O       5.62729331     -0.35815076     -1.77965106
C       6.82662299      0.15119062     -2.40157657
C       6.66401850     -0.10031987     -3.89592423
C      10.55237982      1.47901781     -0.07545154
C      11.58994801      1.40112320      1.04342640
O      12.61045629      2.38368447      0.82060639
C      12.24146621      0.01635199      1.09622701
O      12.93459741     -0.18491782     -0.15055010
H      10.28284206     -2.29367470      2.82880743
H      10.74863556     -0.68423444      3.36803134
H      12.00002376     -1.92223812      3.08910880
H      11.40314703     -1.95150327      0.65287758
H      10.47054333     -0.43671436     -1.09385145
H       8.89158270     -0.54896679     -2.61760817
H       7.28434200     -2.46757941     -2.11884153
H       8.69065418     -3.16681555     -0.15384656
H       6.18620589     -2.72146517     -0.08991772
H       7.23519570     -1.67207972      0.80855937
H       6.15334031      0.30284204      0.12492438
H       4.35502523      0.60326787      1.46430132
H       2.72866944      1.95191357      0.29567699
H       4.46803830      0.94478005     -1.68476578
H       1.71028240      1.11721754     -1.89664961
H       2.43910011     -0.43991355     -1.57349101
H       0.47480790     -0.88567035     -0.46864367
H      -1.37453486     -0.19567368      0.73654207
H      -1.97833688      2.76850715      0.26071383
H      -1.52372892      2.01763414      1.76746262
H      -3.53975995      0.67574083      1.84010981
H      -3.96425970      2.36983598      1.67942566
H      -3.59614070      2.78195901     -1.41971269
H      -5.24866814      2.30423249     -1.79023694
H      -4.89511434      3.31038353     -0.36984727
H      -5.60376350      0.12413927      1.36914699
H      -6.97780907      2.37449146     -0.17860051
H      -6.37942099      2.43656222      1.45685513
H      -7.95691231      0.71759905      2.16791909
H      -8.55965768      2.89206973      2.12271891
H      -9.91052590      1.84292021     -0.83072469
H      -8.39998770      1.40906529     -1.61956134
H      -9.79099463      0.35772254     -1.77264378
H     -10.14382014      0.02521210      1.92595305
H     -11.42190329     -2.27213169     -0.96694858
H     -11.97288453      1.55953949      0.25676548
H     -12.60388241      0.61409369      1.63747070
H      -9.64677119     -2.12459603      2.38269289
H      -9.89439109     -2.67923778      0.73268827
H      -7.40145134     -1.45499805      1.93237561
H      -7.59009699     -2.86126945      0.86834988
H      -7.77879157     -2.42110362     -1.43612350
H      -6.44330008     -0.00273650     -1.52533076
H      -5.55060051     -2.10816827     -1.64423023
H      -5.62077654     -2.44103071      0.07128748
H      -3.63891061     -1.37633233      0.55824233
H      -3.32367299     -2.03094163     -1.03746464
H      -4.09474300      0.16320617     -2.02168734
H      -1.68885603     -0.47579281     -1.71048931
H      -2.02235774      1.21424355     -1.90381258
H       2.44458667     -1.67707329      1.04645187
H       1.95247080     -1.31371875      3.40331620
H       2.75118767      0.25176971      3.39105246
H       3.71204446     -1.23434178      3.16694240
H       6.84487666      1.23477177     -2.23183007
H       6.57682746     -1.17225265     -4.10998737
H       7.50602197      0.30480107     -4.46375893
H       5.74149991      0.36478267     -4.26045311
H      10.98857008      1.85885433     -1.00650193
H       9.79951177      2.22568170      0.20139623
H      11.12106877      1.62075589      2.01022971
H      12.17025588      3.25281212      0.80449647
H      13.01302375     -0.04088835      1.87274259
H      13.49404434      0.61149326     -0.25216012
