18
O=C(O)c1cccc(C(=O)O)c1
O       2.35572573      2.18236538      0.35556609
C       2.34975885      0.99628538      0.08444371
O       3.49245658      0.32731178     -0.14828998
C       1.14614819      0.13727551     -0.02839268
C       1.23477577     -1.22463602     -0.34635660
C       0.07737545     -1.99893743     -0.44301818
C      -1.17125983     -1.41596311     -0.22259568
C      -1.26906559     -0.05495680      0.09580015
C      -2.61898432      0.51603185      0.32053208
O      -3.66978271     -0.09404389      0.25404318
O      -2.58702979      1.82595339      0.61819607
C      -0.10789973      0.72183634      0.19277009
H       4.18936785      1.00856039     -0.04086160
H       2.20144061     -1.69222742     -0.52072662
H       0.14820918     -3.05586593     -0.68992097
H      -2.06962726     -2.02662423     -0.29983380
H      -3.52928092      2.06755636      0.73912837
H      -0.17232804      1.78007845      0.43952762
