19
COc1ccccc1C(=O)O
C      -2.44047738     -1.32816878      0.68632180
O      -1.08822190     -1.36485555      0.25112612
C      -0.44670950     -0.17129491      0.05704802
C      -1.10669560      1.06325529     -0.01364982
C      -0.39405813      2.24206647     -0.25448982
C       0.98490811      2.20322549     -0.43347117
C       1.65520599      0.98288322     -0.37028447
C       0.94736372     -0.20733939     -0.12636014
C       1.69671025     -1.48803535     -0.03315085
O       1.41909282     -2.47649483      0.61769524
O       2.81019603     -1.46576575     -0.79506987
H      -2.74432013     -2.35310942      0.91999996
H      -3.09659794     -0.96061122     -0.10910444
H      -2.55105090     -0.73195729      1.59829863
H      -2.18306460      1.14134369      0.10236637
H      -0.92114960      3.19196851     -0.30764111
H       1.53824492      3.11982497     -0.62209750
H       2.73436465      0.96420331     -0.50543432
H       3.18625918     -2.36113846     -0.66210263
