50
CC1(C)C(/C=C(\Cl)C(F)(F)F)C1C(=O)OC(C#N)c1cccc(Oc2ccccc2)c1
C      -3.14963268      1.64730055      3.34974743
C      -3.77747333      0.88562549      2.20531785
C      -5.28751004      0.88592006      2.25132761
C      -3.03098922      0.89275437      0.88030121
C      -3.76109016      0.98020151     -0.39410203
C      -3.50458673      0.32155887     -1.54040504
Cl     -2.18075029     -0.80090616     -1.64074340
C      -4.29341625      0.47790765     -2.80781533
F      -5.29907976      1.38668915     -2.68269722
F      -3.52329221      0.89817326     -3.84466722
F      -4.87677159     -0.68734671     -3.19208077
C      -3.10812284     -0.38255220      1.69671987
C      -1.90954948     -0.93699865      2.36626122
O      -1.96939615     -1.47502252      3.46037932
O      -0.79490267     -0.79198747      1.61299292
C       0.41283290     -1.27257938      2.23310313
C       0.95366807     -0.26469253      3.17273982
N       1.37018240      0.53578276      3.90533183
C       1.41292590     -1.58192453      1.12775564
C       2.25977059     -2.69950802      1.23369026
C       3.18748312     -2.99013359      0.23014987
C       3.29217884     -2.16314387     -0.88656580
C       2.47976196     -1.03353641     -0.98746418
O       2.51543364     -0.19801130     -2.07878193
C       3.73752577      0.31671216     -2.44310219
C       3.99393654      0.40210464     -3.81097447
C       5.19418731      0.94953655     -4.26049756
C       6.13253697      1.42176604     -3.34321456
C       5.86808372      1.35415795     -1.97563457
C       4.66690406      0.80899058     -1.52296727
C       1.53584517     -0.75121841      0.00059866
H      -3.39602294      1.17018715      4.30361102
H      -3.52751050      2.67424477      3.37138898
H      -2.05916759      1.69876645      3.26973926
H      -5.67061158      1.90398129      2.12645625
H      -5.63627323      0.50312724      3.21599121
H      -5.73128996      0.25879998      1.47147793
H      -2.08302214      1.42500618      0.86205637
H      -4.59053155      1.68887645     -0.40253136
H      -3.76929285     -1.16735707      1.34187327
H       0.20151627     -2.20992642      2.76393237
H       2.20220596     -3.36030841      2.09749292
H       3.82817682     -3.86506962      0.31717181
H       4.00469273     -2.40239077     -1.67128547
H       3.25892306      0.04131530     -4.52470525
H       5.39563809      1.01452840     -5.32520717
H       7.06713972      1.85126962     -3.69495520
H       6.59395218      1.73488212     -1.26269701
H       4.46437729      0.78003887     -0.45767917
H       0.90040665      0.12440865     -0.11683387
