21
O=C(O)CCSCCC(=O)O
O       2.97424830      0.59531385     -1.98040932
C       3.37898985      0.37187885     -0.85207312
O       4.43338464      1.04920391     -0.35693210
C       2.87262138     -0.67232402      0.10263152
C       1.38842450     -0.95244424     -0.09038142
S       0.36030879      0.39323485      0.59525731
C      -1.27708008     -0.24081519      0.10437587
C      -2.36633271      0.72466996      0.55005035
C      -3.71671561      0.20139124      0.15290644
O      -3.96657913     -0.85337085     -0.40472794
O      -4.70729646      1.04960660      0.49151215
H       4.66407606      1.68318391     -1.06796521
H       3.44593943     -1.58530281     -0.09529841
H       3.07986728     -0.36717462      1.13486770
H       1.14635782     -1.08449902     -1.14990675
H       1.12576579     -1.87423295      0.43889779
H      -1.42665811     -1.22468629      0.56217011
H      -1.29906850     -0.36337317     -0.98397843
H      -2.22862588      1.70329385      0.07613584
H      -2.35638513      0.84206855      1.63963279
H      -5.52524223      0.60437757      0.18553836
