16
COC(C)OC
C       2.06230858     -0.92250432      0.44522458
O       1.46291411      0.36468390      0.46704947
C       0.16498265      0.36279232     -0.13125070
C      -0.31503099      1.80840708     -0.14493777
O      -0.73162750     -0.44282203      0.62983740
C      -1.85000487     -0.89013713     -0.12120500
H       3.06816962     -0.83842729      0.86575890
H       2.14591689     -1.29286520     -0.58113465
H       1.49293570     -1.62889682      1.05644823
H       0.25382955     -0.00932406     -1.16017399
H      -1.28484365      1.90897615     -0.64009783
H       0.40885949      2.45468010     -0.65194439
H      -0.42963110      2.18400781      0.87825116
H      -2.45511817     -0.04835855     -0.46808180
H      -1.52352831     -1.49606007     -0.97195669
H      -2.47013201     -1.51415191      0.52821307
