29
CCCCCCCC(=O)OC
C      -4.54973681      1.43172563      1.02787463
C      -3.71647300      0.50181526      0.16044151
C      -2.25906534      0.46394742      0.61946833
C      -1.42429369     -0.47247210     -0.25570858
C       0.03468172     -0.51035464      0.20364838
C       0.86795904     -1.45084189     -0.67260522
C       2.32638465     -1.52959939     -0.22186057
C       3.11352692     -0.27718172     -0.53476820
O       2.76802405      0.60532004     -1.30708294
O       4.28879576     -0.29594399      0.15691041
C       5.11908994      0.84160437     -0.07998421
H      -4.54329922      1.10449330      2.07248636
H      -4.16598216      2.45608669      0.98599722
H      -5.58808349      1.44358874      0.68203335
H      -3.77021311      0.83789800     -0.88160700
H      -4.14545924     -0.50625008      0.19888239
H      -1.83608202      1.47530358      0.58312687
H      -2.21119882      0.13113479      1.66350279
H      -1.84752520     -1.48367015     -0.21923570
H      -1.47185977     -0.13915738     -1.29956977
H       0.45177692      0.50272926      0.17159368
H       0.08127349     -0.84504268      1.24713235
H       0.81153989     -1.13080242     -1.72004897
H       0.43527675     -2.45766549     -0.62285760
H       2.37002050     -1.72039269      0.85633874
H       2.81880862     -2.35911010     -0.74176854
H       6.02442351      0.73167069      0.52337015
H       4.60836060      1.75994820      0.22628750
H       5.40932951      0.89121876     -1.13412923
