13
CCOC(N)=O
C      -2.01597264     -0.54067549      0.28148019
C      -0.89659914      0.35307528     -0.21609181
O       0.35133808     -0.24812022      0.14779350
C       1.43489913      0.45841301     -0.24265315
N       2.56150995     -0.18034456      0.14105940
O       1.43250531      1.51594013     -0.85075825
H      -1.95694203     -0.66376964      1.36797345
H      -1.93469494     -1.54071685     -0.15717158
H      -2.99303177     -0.12117517      0.02601821
H      -0.98025211      1.34258512      0.24739318
H      -0.95759381      0.44938317     -1.30602329
H       3.45635463      0.22796935     -0.08067176
H       2.49847933     -1.05256413      0.64165191
