21
CN(CCO)CCO
C       0.03674609     -1.68765202      0.97794348
N      -0.00609162     -0.33469929      0.40382883
C       1.01455480     -0.19039965     -0.66486955
C       2.44151836     -0.13173895     -0.09561172
O       2.49933011      0.83094291      0.95552513
C      -1.36457327     -0.08346157     -0.12733973
C      -1.66762667      1.40118682     -0.37925257
O      -3.02363081      1.54350237     -0.79731628
H      -0.14881093     -2.46145221      0.22427830
H      -0.71315884     -1.79219291      1.77054502
H       1.00194850     -1.88808675      1.45299327
H       0.93478250     -0.98691880     -1.41450375
H       0.85671822      0.76127469     -1.18344753
H       2.76257753     -1.09872670      0.30217870
H       3.15129246      0.16636531     -0.87323714
H       1.63656550      0.74987364      1.41184389
H      -1.54982818     -0.66470951     -1.04072903
H      -2.11378820     -0.43258925      0.59673791
H      -1.03275327      1.81957169     -1.16460987
H      -1.52803325      1.98233013      0.53835601
H      -3.18773901      2.49758005     -0.89331335
