32
O=C1CN=C(c2ccccc2Cl)c2cc([N+](=O)[O-])ccc2N1
O      -2.77922654      3.73907776      0.26171926
C      -2.19222296      2.71991447     -0.10449166
C      -1.07382340      2.74351485     -1.12895600
N       0.17314985      2.26296351     -0.54847276
C       0.28312273      1.02570059     -0.20517086
C       1.60304196      0.61784767      0.36534614
C       2.74313429      0.90775151     -0.40008814
C       4.00909319      0.54086563      0.05712001
C       4.14491289     -0.10602200      1.28374703
C       3.01640820     -0.37624881      2.06066316
C       1.74328016     -0.01077322      1.61004687
Cl      0.40898792     -0.33050780      2.65967515
C      -0.78310763     -0.01230722     -0.35018042
C      -0.39266171     -1.30875779     -0.73207536
C      -1.32092045     -2.35663472     -0.69603939
N      -0.90511359     -3.71166176     -1.08077363
O       0.27687092     -3.87641976     -1.41268461
O      -1.76132407     -4.60610869     -1.05262928
C      -2.63368232     -2.12704161     -0.27564496
C      -3.02379882     -0.83370457      0.08052666
C      -2.11952333      0.23736981      0.00968514
N      -2.63479383      1.50008866      0.33408962
H      -1.36155117      2.17851890     -2.02302026
H      -0.92984929      3.78198461     -1.44699225
H       2.64494820      1.42354482     -1.35342416
H       4.88922673      0.76662412     -0.54086200
H       5.13217104     -0.38797210      1.64313175
H       3.13972779     -0.86305056      3.02557286
H       0.63474328     -1.50169586     -1.03603154
H      -3.36338909     -2.93363905     -0.22658043
H      -4.05564029     -0.66742291      0.38642356
H      -3.51219067      1.56420154      0.83637051
