52
C#C[C@]1(O)CC[C@H]2[C@@H]3CCC4=Cc5oncc5C[C@]4(C)[C@H]3CC[C@@]21C
C      -4.06792629      0.81795965      2.84138578
C      -3.95939159      0.57469252      1.66971092
C      -3.84707260      0.27480727      0.22542308
O      -4.82065279      1.05097226     -0.45867246
C      -4.09542238     -1.23590865     -0.02727818
C      -2.70929139     -1.89239012     -0.19324196
C      -1.71087792     -0.78276217      0.13061673
C      -0.27324784     -0.91342012     -0.39065560
C       0.38180088     -2.20764752      0.11014311
C       1.81270557     -2.33371642     -0.39406734
C       2.65204088     -1.13589320     -0.02190472
C       3.87717979     -1.32157396      0.51639598
C       4.67428665     -0.18495823      0.77046653
O       5.99325951     -0.16291439      1.12798225
N       6.42311503      1.15099819      1.25988116
C       5.35388869      1.90313100      0.98952024
C       4.23561295      1.11741733      0.67931171
C       2.82975496      1.45456997      0.35851006
C       2.06415165      0.26871153     -0.36101657
C       2.22865829      0.46429477     -1.88854498
C       0.55139378      0.32489453      0.08029033
C      -0.15419394      1.66060123     -0.28453082
C      -1.62880951      1.71130174      0.15524342
C      -2.42082702      0.49678780     -0.36230544
C      -2.51371813      0.59668350     -1.91433890
H      -4.16181563      1.03884490      3.87981379
H      -5.67115819      0.89309590     -0.01451268
H      -4.64543316     -1.70914030      0.79512360
H      -4.69218624     -1.39828199     -0.93312681
H      -2.58387053     -2.25886005     -1.21833027
H      -2.59566276     -2.74889703      0.47938938
H      -1.63854732     -0.74566968      1.22949476
H      -0.28802562     -0.95250379     -1.48534813
H       0.37192733     -2.23664092      1.20749371
H      -0.18826694     -3.07795207     -0.23522462
H       1.80916260     -2.44258026     -1.48546039
H       2.24526035     -3.25903320      0.00601117
H       4.29002571     -2.30509132      0.71278347
H       5.44439511      2.97876747      1.04098244
H       2.33897125      1.68915280      1.31271552
H       2.78991758      2.36873863     -0.24607996
H       1.64415632     -0.25807161     -2.46668264
H       3.27674999      0.34853919     -2.19057691
H       1.91801876      1.46452574     -2.20735305
H       0.55229526      0.28183798      1.18181317
H      -0.09588502      1.84206240     -1.36176906
H       0.36351188      2.50076552      0.19186436
H      -2.08578148      2.64522791     -0.19342767
H      -1.64277560      1.74973068      1.25071223
H      -1.53735838      0.56918161     -2.40432263
H      -2.98905210      1.53909694     -2.21096630
H      -3.10499036     -0.21348395     -2.35256390
