10
C=C(C)C#N
C       1.42574603     -0.11092331      0.07268472
C       0.13126823      0.22688125     -0.05385342
C      -0.97356927     -0.76431865      0.16488872
C      -0.22309937      1.56580132     -0.40679047
N      -0.51378267      2.65160072     -0.69310738
H       1.72672943     -1.11943781      0.33958718
H       2.22232725      0.61191602     -0.08711836
H      -0.59057949     -1.75567710      0.42996094
H      -1.57574993     -0.87264889     -0.74357773
H      -1.62929019     -0.43319354      0.97732580
