20
O[C@H]1CO[C@@H]2[C@H](O)CO[C@H]12
O      -2.32918111      1.54052289      0.22755502
C      -1.29567205      0.58345319      0.41084674
C      -1.80101887     -0.84586921      0.30610411
O      -0.67454527     -1.66028043     -0.08034812
C       0.27316949     -0.79139946     -0.72131422
C       1.56627962     -0.67520252      0.06537019
O       1.32261208     -0.82727717      1.46775311
C       1.99866516      0.75112645     -0.24201630
O       0.79801830      1.53174273     -0.43313297
C      -0.27341413      0.62206555     -0.70926661
H      -1.89135426      2.41248530      0.22417896
H      -0.83123013      0.76646462      1.38625383
H      -2.58243880     -0.94821846     -0.45561364
H      -2.20622434     -1.21187466      1.25409298
H       0.46381253     -1.13284604     -1.74456617
H       2.31660946     -1.41740879     -0.22013019
H       0.72966931     -1.60115636      1.54691279
H       2.56369273      0.79703383     -1.17893525
H       2.58600301      1.20633945      0.56021643
H      -0.73345272      0.90029910     -1.66396065
