28
Cc1cc(C)nc(Nc2ccccc2)n1
C      -3.87800736      0.88444316      1.88919620
C      -2.78935622      0.56167942      0.91107294
C      -3.08372032      0.38306742     -0.42300707
C      -2.01945527      0.08950831     -1.24710426
C      -2.23324450     -0.12319202     -2.71489783
N      -0.75837843     -0.01904191     -0.78490353
C      -0.54886067      0.16818162      0.52594267
N       0.71741301      0.07671083      1.09542212
C       1.99517024     -0.19409600      0.59683832
C       2.26960447     -0.45823446     -0.74861785
C       3.57285557     -0.72262116     -1.18606393
C       4.62875920     -0.72718765     -0.28007031
C       4.38101727     -0.46732699      1.06326460
C       3.07690829     -0.20393977      1.49394285
N      -1.53441504      0.45738443      1.39343279
H      -4.62285258      0.08268112      1.90464463
H      -3.47384628      0.99327849      2.90084963
H      -4.36672691      1.82454197      1.61492838
H      -4.09361236      0.46844255     -0.80248765
H      -2.91338740     -0.96454490     -2.88030354
H      -2.65726351      0.77730602     -3.17002340
H      -1.28704915     -0.34611108     -3.21865439
H       0.63759523      0.25309930      2.08534287
H       1.47499312     -0.46440765     -1.48819060
H       3.75588370     -0.92451199     -2.23807887
H       5.63966911     -0.93250678     -0.62082600
H       5.19891524     -0.46862284      1.77851895
H       2.91139153     -0.00397945      2.54983229
