19
CCC[C@@H](N)C(=O)O
C      -2.13597328     -0.54501040     -0.80629000
C      -1.20949224     -1.13282070      0.24639773
C      -0.26828038     -0.10331435      0.88261992
C       0.68179305      0.60345451     -0.09140314
N       1.45503370      1.64939349      0.65291837
C       1.69473054     -0.38573121     -0.69705492
O       1.45841804     -1.18467202     -1.58827607
O       2.90981868     -0.26998016     -0.09742822
H      -1.58125674     -0.21199500     -1.68822190
H      -2.69675813      0.30557864     -0.40633623
H      -2.85638486     -1.30063051     -1.13589613
H      -0.63717729     -1.95862408     -0.18924160
H      -1.82364152     -1.57164778      1.04237152
H      -0.88322078      0.64499751      1.40008552
H       0.31553127     -0.61628836      1.65873256
H       0.14655327      1.10410349     -0.90353968
H       1.83137999      2.30615022     -0.04074604
H       0.78995822      2.21139336      1.19222637
H       2.80896846      0.45564337      0.56908194
