12
ClC/C=C\CCl
Cl     -2.43879644     -1.11936466     -0.98985755
C      -1.54419337     -0.38137374      0.35255349
C      -0.70868939      0.74526270     -0.16803740
C       0.62563671      0.76359054     -0.33377032
C       1.58508259     -0.36146506     -0.10550485
Cl      2.50362855     -0.05862594      1.38163158
H      -2.26856092     -0.00494289      1.08109278
H      -0.95593605     -1.16231630      0.84008985
H      -1.26137818      1.65345374     -0.40657225
H       1.07769773      1.68354516     -0.70322826
H       1.09325472     -1.33237957     -0.01042603
H       2.29225404     -0.42538400     -0.93797105
