17
OCCOCCO
O      -1.40356085      0.36474973     -2.37415553
C      -1.98592834     -0.36190388     -1.29405675
C      -0.88864354     -0.95291564     -0.41508656
O      -0.12230565      0.12733106      0.13807114
C       0.91257181     -0.36462552      1.00247675
C       1.66462708      0.83038698      1.57890731
O       2.28210630      1.56854729      0.52646488
H      -0.74246656      0.95363538     -1.96401827
H      -2.61047558      0.33392162     -0.72516573
H      -2.61801514     -1.15042576     -1.71150411
H      -1.33328157     -1.54325560      0.39299452
H      -0.22415819     -1.58346410     -1.01613091
H       1.59381885     -0.98971362      0.41463927
H       0.46965178     -0.95438723      1.81192194
H       0.98166200      1.50712095      2.10184442
H       2.44406728      0.50286656      2.27227954
H       1.58033032      1.71213178     -0.13606153
