15
Nc1ccccc1O
N       2.16350194      0.44149508     -0.13024833
C       0.81377308      0.06774491      0.07096636
C       0.40608054     -1.26316997     -0.00548164
C      -0.95553770     -1.58167944      0.04304273
C      -1.91559036     -0.56936686      0.12825661
C      -1.51998394      0.76664641      0.15625800
C      -0.16622907      1.06768009      0.11332533
O       0.23005611      2.37744926      0.12931868
H       2.30980841      0.62971493     -1.12343038
H       2.79254836     -0.31047732      0.14665678
H       1.13416177     -2.06304997     -0.10129111
H      -1.27001321     -2.62167977      0.00226917
H      -2.97217990     -0.82212224      0.16151336
H      -2.25514213      1.56326586      0.20714041
H       1.20474609      2.31754902      0.20170404
