17
Nc1cccc(C(=O)O)c1
N      -2.42889288     -1.50376140     -0.03169960
C      -1.41870783     -0.54219850     -0.14508722
C      -1.69469870      0.80171488      0.12170209
C      -0.67361745      1.75513303      0.12997417
C       0.64650271      1.36423084     -0.08887731
C       0.94477104      0.01359893     -0.29781257
C       2.33298979     -0.46213078     -0.50582861
O       2.67101957     -1.61347063     -0.71002768
O       3.23968732      0.52992195     -0.45126042
C      -0.08761292     -0.93517644     -0.30441106
H      -3.36008981     -1.15269717     -0.23228369
H      -2.23088630     -2.37235584     -0.51958932
H      -2.71408063      1.11926515      0.32681349
H      -0.90774412      2.79931282      0.32107305
H       1.43381447      2.11364226     -0.07640510
H       4.09380004      0.07269397     -0.59967503
H       0.15374570     -1.98772307     -0.43635994
