33
CN(C)c1nc(N(C)C)nc(N(C)C)n1
C      -0.27402579     -3.33116832      1.21111681
N      -1.20244798     -2.25345025      0.90956785
C      -2.25171327     -2.00004564      1.88443043
C      -0.60286409     -1.09720269      0.39303247
N      -1.27739751      0.04483105      0.44126802
C      -0.69852363      1.11953881     -0.07964103
N      -1.38088756      2.34370443     -0.02886082
C      -2.82207763      2.21440262      0.12544907
C      -0.91688640      3.32306413     -1.00000289
N       0.51448658      1.08755668     -0.61724820
C       1.14343914     -0.08100130     -0.63855974
N       2.41345293     -0.14930098     -1.22645370
C       3.11542844      1.12317730     -1.28610027
C       3.19593026     -1.31194647     -0.83869016
N       0.60664395     -1.19052479     -0.14582147
H       0.27077815     -3.65798282      0.31782328
H      -0.81756673     -4.20927588      1.57805756
H       0.44444660     -3.03676444      1.98503116
H      -3.07367723     -1.41725563      1.45279831
H      -2.69069048     -2.94498195      2.22440143
H      -1.86216709     -1.47761892      2.76598047
H      -3.28791217      3.20502633      0.17921295
H      -3.08495676      1.70054640      1.05736621
H      -3.27055364      1.68099830     -0.72087683
H       0.13857949      3.57637368     -0.84687114
H      -1.05850487      2.96822361     -2.02759736
H      -1.47618626      4.25929893     -0.89102723
H       3.30019658      1.52643300     -0.28357744
H       4.08636758      0.99869627     -1.77901773
H       2.56349392      1.86310593     -1.87724259
H       2.69507386     -2.24724776     -1.11427654
H       4.15902263     -1.31332213     -1.36176448
H       3.40169896     -1.31588751      0.23809363
