14
O=C(O)c1cccnc1
O       2.69583649     -0.64767963     -0.87894822
C       1.95114174      0.03806456     -0.20448078
O       2.42234972      1.02462868      0.57856462
C       0.48464182     -0.09059761     -0.13600553
C      -0.32163972      0.72719680      0.65840597
C      -1.70155547      0.53127012      0.65907969
C      -2.22489019     -0.47691563     -0.13605179
N      -1.47274420     -1.28477410     -0.91542794
C      -0.13252250     -1.07338812     -0.89811456
H       3.39266839      0.99822783      0.43826575
H       0.11191566      1.51106322      1.27338525
H      -2.35343707      1.15054061      1.26566168
H      -3.29431514     -0.66715804     -0.16823580
H       0.44255048     -1.74047867     -1.53609832
