46
CC(C)OC(=O)C(C)(C)Oc1ccc(C(=O)c2ccc(Cl)cc2)cc1
C      -5.98581449      0.97745939      0.72944702
C      -4.90112833      1.02467474     -0.34043773
C      -5.51612016      1.00105816     -1.73431851
O      -4.06425320     -0.14213926     -0.22788179
C      -3.04564782     -0.07148998      0.67973101
O      -2.81985302      0.90365789      1.38527141
C      -2.25259218     -1.39899822      0.72147574
C      -2.11751772     -2.07455579     -0.65353392
C      -3.08559164     -2.33294239      1.62233731
O      -0.98015301     -1.33857820      1.37734513
C       0.05373653     -0.58205716      0.91252466
C       0.01445679      0.36206438     -0.11039883
C       1.17418887      1.05887131     -0.47315150
C       2.38535416      0.81233187      0.18112012
C       3.58533332      1.58369331     -0.23292270
O       3.44972254      2.72709846     -0.66052374
C       4.95082806      1.00745417     -0.14908259
C       5.20020781     -0.33985305     -0.44032124
C       6.50429451     -0.83820907     -0.36716622
C       7.55472335      0.01062880     -0.01745040
Cl      9.15739438     -0.60780306      0.07099131
C       7.31599234      1.35716892      0.25295527
C       6.01391789      1.85807175      0.18051725
C       2.42312927     -0.10912833      1.22962945
C       1.26191963     -0.80205794      1.58417915
H      -5.54655207      0.99521450      1.73211650
H      -6.66924315      1.82722842      0.63834077
H      -6.56548411      0.05042519      0.65831327
H      -4.30274630      1.93838026     -0.24094605
H      -6.17048400      1.86310199     -1.89558360
H      -4.72970294      1.01234484     -2.49686629
H      -6.09509904      0.08461726     -1.89405415
H      -3.08813189     -2.39865556     -1.04552350
H      -1.46183327     -2.95085818     -0.59603837
H      -1.68650508     -1.40134760     -1.40016251
H      -4.09478170     -2.49461002      1.22772864
H      -3.18333155     -1.91287074      2.63093844
H      -2.59668233     -3.30764483      1.73617118
H      -0.89698425      0.60694860     -0.64225581
H       1.12547757      1.80363078     -1.26597998
H       4.39698470     -1.00725757     -0.74263354
H       6.69584372     -1.88436667     -0.59271936
H       8.13522355      2.02229574      0.51365403
H       5.82869220      2.91232063      0.37953635
H       3.33337231     -0.28753296      1.79524806
H       1.29543975     -1.51778478      2.40332306
