35
CCOc1ccc2c(c1)C(C)=CC(C)(C)N2
C       5.76507968      0.19231086      0.36620438
C       4.40551655      0.86449573      0.43471274
O       3.40845419     -0.14313889      0.27687090
C       2.10229356      0.26307140      0.30349481
C       1.65428527      1.56819941      0.47671660
C       0.28296744      1.83902047      0.48229088
C      -0.65996863      0.82026194      0.28815542
C      -0.21327203     -0.50860425      0.15278023
C       1.16777249     -0.76583152      0.14955743
C      -1.21610684     -1.58808261      0.02886542
C      -0.79301504     -3.02609059      0.05700665
C      -2.50394579     -1.22839521     -0.11699282
C      -3.00492306      0.19490865     -0.16718961
C      -3.32495338      0.57981079     -1.61886180
C      -4.27325764      0.32128290      0.69069459
N      -2.02177353      1.13479678      0.37954156
H       5.86061635     -0.56521339      1.15120052
H       6.56860062      0.92495910      0.48258232
H       5.89240861     -0.32326403     -0.59147882
H       4.29859486      1.35624934      1.40847938
H       4.33111409      1.60354412     -0.37138547
H       2.33787882      2.39738181      0.62012033
H      -0.04851113      2.86131680      0.64405636
H       1.54345313     -1.77827367      0.03182322
H      -0.25263663     -3.25465205      0.98180236
H      -0.15023623     -3.26030446     -0.79804549
H      -1.65258052     -3.70407329      0.01064961
H      -3.25824970     -2.00334273     -0.23052380
H      -4.08357650     -0.08301227     -2.05121295
H      -2.43338231      0.52584877     -2.25515603
H      -3.70399131      1.60671737     -1.68186363
H      -4.07420572      0.05895567      1.73703790
H      -5.07296327     -0.33467682      0.32741692
H      -4.65605547      1.34888533      0.68237056
H      -2.22143095      2.10493855      0.16124058
