16
O=C(O)CCC(=O)C(=O)O
O       1.86748679     -1.03772578     -0.11164138
C       1.92735650      0.14988851     -0.38098694
O       2.99195898      0.66365676     -1.02356791
C       0.89924937      1.19948533     -0.05866730
C      -0.29558450      0.59109098      0.66705678
C      -1.12269135     -0.27417133     -0.25072251
O      -1.03708436     -0.31596587     -1.47543419
C      -2.19072537     -1.14453631      0.40629835
O      -2.43118243     -1.12248124      1.59576244
O      -2.81614137     -1.89921374     -0.51675113
H       3.57649379     -0.10642762     -1.18689281
H       1.37198831      1.94331599      0.59187066
H       0.58749661      1.68590437     -0.98907997
H      -0.94349949      1.39125429      1.04075911
H       0.04093338     -0.01270446      1.51706255
H      -2.42605485     -1.71136989     -1.40356719
