60
Cc1ccc(-c2nc3ccc(C)cn3c2CC(=O)N(C)C)cc1.O=C(O)[C@@H](O)[C@H](O)C(=O)O
C       5.44757685     -2.36165960     -1.18267701
C       4.25677117     -1.48090007     -0.94558035
C       3.30790096     -1.28371852     -1.95625068
C       2.21755855     -0.43430935     -1.74784996
C       2.06442725      0.23022855     -0.52642707
C       0.94141845      1.11331121     -0.29126900
N       1.10752967      2.44284358      0.00161528
C      -0.10782025      2.91464918      0.16830705
C      -0.56166940      4.22754343      0.47473325
C      -1.88026839      4.47120976      0.59802531
C      -2.87442250      3.41400282      0.43060653
C      -4.31624633      3.77254993      0.60555234
C      -2.44226138      2.17154733      0.13948042
N      -1.07319900      1.92379619      0.00722784
C      -0.39673347      0.75345784     -0.29433219
C      -1.06819748     -0.56406263     -0.51801856
C      -1.53265224     -1.20581254      0.79258371
O      -1.64782553     -0.55296747      1.83175612
N      -1.87032388     -2.56122919      0.74350218
C      -1.62998437     -3.41566108     -0.40878708
C      -2.14628618     -3.24342339      1.99811591
C       3.02717874      0.05934612      0.47237808
C       4.11644744     -0.79084512      0.26459337
O      -2.42300221     -0.04744794      1.55334024
C      -1.78213437     -0.17154460      0.52005033
O      -2.24986335     -0.91898845     -0.49441880
C      -0.47230281      0.54184044      0.21673205
O       0.02992065      1.21811092      1.38723333
C       0.59377891     -0.45056345     -0.25693026
O       1.56498144     -0.70411060      0.78716146
C       1.33281373      0.12352128     -1.45949269
O       0.80519018      0.63740117     -2.43309941
O       2.67738743     -0.02802390     -1.33549535
H       5.19634624     -3.18233685     -1.86282606
H       6.26418475     -1.77776847     -1.61828650
H       5.79387067     -2.81111354     -0.24604236
H       3.41726007     -1.78243681     -2.91642741
H       1.50058204     -0.27965927     -2.54993132
H       0.17661587      5.01006501      0.60455502
H      -2.22749894      5.47283133      0.83492653
H      -4.61450745      4.53364905     -0.12326361
H      -4.96963897      2.90462723      0.46596968
H      -4.49617695      4.16548494      1.61186193
H      -3.11438956      1.33318370      0.01502007
H      -1.93782170     -0.44333628     -1.17335881
H      -0.36633885     -1.23760206     -1.01650187
H      -0.59358195     -3.76366902     -0.37607022
H      -2.30880763     -4.27303193     -0.37941034
H      -1.80423893     -2.87724175     -1.34291460
H      -1.24347348     -3.77663428      2.31059739
H      -2.43755330     -2.54725304      2.78882880
H      -2.96114724     -3.95755530      1.84715658
H       2.93097905      0.59400568      1.41530682
H       4.85641754     -0.90410532      1.05352478
H      -3.11122971     -1.26860422     -0.17794995
H      -0.70741811      1.31170398     -0.52614000
H      -0.75270265      1.59554858      1.83968655
H       0.19469263     -1.42001899     -0.57054172
H       1.44888688      0.04668324      1.41638521
H       2.85100135     -0.46550748     -0.46652099
