18
Nc1ccc(C(=O)O)c(O)c1
N       3.10285759      0.86912552      0.01061833
C       1.79105468      0.38374453     -0.01136840
C       1.43421921     -0.71080664      0.77942890
C       0.10209554     -1.13110516      0.85952495
C      -0.90378635     -0.43316875      0.17859030
C      -2.29097612     -0.94000803      0.31290894
O      -2.64046018     -1.91897233      0.94533612
O      -3.19340426     -0.19335397     -0.35739327
C      -0.55289583      0.69815998     -0.56707448
O      -1.45633270      1.46724388     -1.25111269
C       0.77944222      1.11241345     -0.64198665
H       3.34060431      1.45040024     -0.78772263
H       3.80606374      0.16061079      0.19493462
H       2.19232487     -1.24894115      1.34323598
H      -0.14505904     -1.99906392      1.46815201
H      -4.04147618     -0.65454815     -0.16643001
H      -2.34394058      1.07591393     -1.10770421
H       1.01966907      2.01235579     -1.20193782
