14
O=[N+]([O-])c1ccccc1
O       2.92352237     -1.07609488     -0.19774428
N       2.34435519      0.01095907     -0.05842727
O       2.91956074      1.10340973      0.05211727
C       0.87688748      0.00409909     -0.02185343
C       0.18064601      1.21044142      0.13411510
C      -1.21483362      1.19758930      0.16816941
C      -1.90699805     -0.00891484      0.04752919
C      -1.21045943     -1.20892659     -0.10772406
C       0.18504288     -1.20873180     -0.14322830
H       0.70511147      2.15887970      0.22945024
H      -1.76440916      2.12861599      0.28885281
H      -2.99473149     -0.01400042      0.07463856
H      -1.75664087     -2.14507530     -0.20110259
H       0.71294648     -2.15225047     -0.26479265
