29
CC(C)(C)c1cc([N+](=O)[O-])cc([N+](=O)[O-])c1O
C      -2.17853557      1.53990226      0.67836007
C      -1.65922240      0.15199642      0.21766822
C      -2.37237558     -0.14511953     -1.12065900
C      -2.12007235     -0.85323922      1.29706734
C      -0.11847448      0.08992292      0.03870236
C       0.68065259      1.22851435      0.28879338
C       2.07715670      1.19832480      0.13421473
N       2.86620276      2.41011453      0.40679933
O       2.25734348      3.42607562      0.76789008
O       4.09344350      2.33936378      0.25802462
C       2.72458646      0.03283184     -0.27471596
C       1.95762194     -1.11117272     -0.52974673
N       2.65909095     -2.32919839     -0.95970196
O       3.89059699     -2.28145639     -1.07429054
O       1.97243688     -3.33827234     -1.18353355
C       0.55210264     -1.08944878     -0.37670446
O      -0.22670680     -2.19159731     -0.61823625
H      -1.75964445      1.82682713      1.65005282
H      -3.26971099      1.53688980      0.79134408
H      -1.93689012      2.32430648     -0.04848224
H      -3.45743460     -0.01794596     -1.02567186
H      -2.02608166      0.53372311     -1.90900652
H      -2.21105273     -1.16708922     -1.47408195
H      -1.95165350     -1.89511415      1.01160894
H      -1.59278717     -0.68237665      2.24311939
H      -3.19457117     -0.75570851      1.49325335
H       0.22253778      2.16178266      0.60994991
H       3.80734159      0.01670683     -0.39243373
H       0.31409930     -2.95954334     -0.89958386
