35
COc1nc(NC(C)C)nc(NC(C)C)n1
C      -1.40726108      3.55181376      0.22348331
O      -0.13637475      3.01104854      0.55827242
C      -0.04141255      1.65517995      0.31837106
N      -1.09332315      0.99416100     -0.14748836
C      -0.88789330     -0.29765927     -0.34446488
N      -1.90386440     -1.10193188     -0.83753149
C      -3.27324611     -0.75627950     -0.47988448
C      -4.21381603     -1.53511460     -1.40041443
C      -3.56027257     -1.10686362      0.98015339
N       0.26026059     -0.91673282     -0.10512038
C       1.24619541     -0.16270268      0.36454087
N       2.43381481     -0.83149993      0.61792769
C       3.67476856     -0.07993993      0.48274249
C       4.78962188     -0.88322955      1.15419417
C       4.01192758      0.15303375     -0.99005957
N       1.14476144      1.13543357      0.59326591
H      -1.38069483      4.62446721      0.43887596
H      -1.62219582      3.43356678     -0.84439278
H      -2.20166456      3.11064136      0.83574217
H      -1.63220086     -2.06457405     -0.66815741
H      -3.46552419      0.31122592     -0.64481051
H      -4.02180099     -1.28716178     -2.45026615
H      -4.08020563     -2.61695306     -1.28697150
H      -5.26000798     -1.29603896     -1.18265982
H      -2.92723141     -0.52758669      1.66058582
H      -3.37399306     -2.16821688      1.17940966
H      -4.60374274     -0.89148612      1.23332019
H       2.39450614     -1.71808920      0.12789985
H       3.61062893      0.88459730      1.00153764
H       4.56224454     -1.05187483      2.21268405
H       5.74484857     -0.35119414      1.09437498
H       4.91557586     -1.86475462      0.68318525
H       3.24676381      0.76255732     -1.48224118
H       4.96888384      0.67580046     -1.09136593
H       4.08192408     -0.79364279     -1.53760510
