40
CN(C)c1ccc(C(=O)c2ccc(N(C)C)cc2)cc1
C      -6.24974901     -0.26598832     -0.42232928
N      -5.05652872     -0.65617306      0.32781660
C      -5.29471776     -1.09233593      1.70333997
C      -3.82874192     -0.06268174      0.00997130
C      -2.69487576     -0.21000280      0.83163691
C      -1.45347799      0.36105620      0.51212835
C      -1.30381470      1.08755406     -0.66687572
C      -0.01478568      1.71828225     -1.04532216
O      -0.02409318      2.79997327     -1.62777639
C       1.28522819      1.07241304     -0.73636542
C       1.45303438     -0.30968335     -0.77996783
C       2.70420295     -0.87414581     -0.48804063
C       3.83007208     -0.09199908     -0.16686176
N       5.06791866     -0.66760313      0.14479981
C       5.32179008     -2.05276784     -0.25004404
C       6.25040102      0.18929712      0.22348577
C       3.62255608      1.29970887     -0.14005321
C       2.37866550      1.87856224     -0.43071971
C      -2.40568453      1.26148701     -1.50025989
C      -3.63962240      0.68365849     -1.16809567
H      -7.13145938     -0.81995960     -0.08067406
H      -6.46113150      0.80187748     -0.29864203
H      -6.14390423     -0.50101300     -1.48688934
H      -4.60633225     -1.89461548      1.98951621
H      -5.19862558     -0.25579915      2.40436533
H      -6.30243978     -1.50669354      1.82086413
H      -2.74608914     -0.77906678      1.75517022
H      -0.62546526      0.23433032      1.20460533
H       0.63178015     -0.96856529     -1.04942138
H       2.76963526     -1.95763770     -0.52173005
H       4.64624452     -2.74242622      0.26709281
H       6.33576976     -2.36548998      0.02392772
H       5.21958926     -2.17883625     -1.33361479
H       6.14004237      0.94720183      1.00650803
H       6.44840219      0.67663282     -0.73756245
H       7.14186187     -0.38905064      0.49151377
H       4.42993207      1.98292479      0.10558043
H       2.27237956      2.96126508     -0.41116392
H      -2.31371331      1.84246192     -2.41564690
H      -4.45425389      0.84384791     -1.86787421
