31
O=c1cc(-c2ccc(O)c(O)c2)oc2cc(O)cc(O)c12
O      -2.02226405      3.06531732     -0.24358325
C      -1.55882223      1.93131821     -0.19052593
C      -0.11166152      1.68349651     -0.25491147
C       0.33565104      0.42053321     -0.19140424
C       1.77602582      0.10202005     -0.26193551
C       2.21344197     -1.00548790     -1.01391029
C       3.57099289     -1.33868879     -1.09212759
C       4.49645316     -0.56276498     -0.40907382
O       5.83564124     -0.83369877     -0.44340387
C       4.07529792      0.52842112      0.34457932
O       4.99133026      1.28417190      1.01952853
C       2.72999145      0.86539011      0.42781353
O      -0.48564077     -0.69200477     -0.08258456
C      -1.84290816     -0.50060209     -0.01289592
C      -2.63981507     -1.63852440      0.10864537
C      -4.02357267     -1.50188192      0.18132745
O      -4.76602772     -2.63955836      0.29925888
C      -4.62564989     -0.24711760      0.13447123
C      -3.82436977      0.88578985      0.01286220
O      -4.46711225      2.09381902     -0.02974174
C      -2.43285125      0.76034859     -0.06056145
H       0.52766983      2.55030907     -0.36202027
H       1.49272110     -1.61802488     -1.55353342
H       3.87502712     -2.19628795     -1.68342389
H       5.97231506     -1.62018655     -0.99942047
H       5.85194061      0.86401590      0.82007242
H       2.44164663      1.71387183      1.04199581
H      -2.18875732     -2.62601138      0.14808262
H      -5.70638633     -2.39674151      0.34797589
H      -5.70348494     -0.13156976      0.19014229
H      -3.78682217      2.80032890     -0.11622068
