22
COC(C[Hg+])CNC(N)=O.[Cl-]
C      -2.34399738     -1.62038272      0.71686055
O      -1.47704691     -0.52617284      0.72831384
C      -1.09479315     -0.11990189     -0.53598099
C      -1.61681641      1.24341595     -0.91469032
Hg     -1.01502526      2.77722290      0.32149900
C       0.35639947     -0.33106462     -0.82008418
N       1.26690423      0.33652846      0.04392752
C       2.66026258      0.19228801     -0.15983767
N       3.59592586      0.84717777      0.68724175
O       3.15132882     -0.51013192     -1.08447961
Cl      0.00000000      0.00000000      0.00000000
H      -2.64216179     -1.93650217      1.71675898
H      -1.82762245     -2.47871198      0.23632460
H      -3.25197150     -1.42172662      0.11227605
H      -1.62907213     -0.83619498     -1.24246884
H      -1.28573074      1.48574873     -1.95627588
H      -2.72475133      1.23621796     -0.96285781
H       0.51885075     -1.44481304     -0.83547036
H       0.56541294      0.00382264     -1.85679544
H       0.94060094      0.92459479      0.82142206
H       3.31681116      1.00937221      1.66444507
H       4.53649230      1.16921336      0.38206110
