20
O=c1ccc2cc3ccoc3cc2o1
O      -4.25325126     -1.52271858     -0.60002825
C      -3.20391723     -0.93446064     -0.36682834
C      -3.21420507      0.43276440      0.18094923
C      -2.09256881      1.10802933      0.44883726
C      -0.80037778      0.48800641      0.19739309
C       0.39819269      1.16685576      0.46654005
C       1.61910690      0.51474617      0.20241051
C       2.99398299      0.84686207      0.33222830
C       3.70230815     -0.24768982     -0.10795356
O       2.85901076     -1.23684757     -0.50225146
C       1.59110505     -0.77688024     -0.31498796
C       0.42714179     -1.48455507     -0.59576247
C      -0.76383275     -0.80851585     -0.32211897
O      -1.96115400     -1.50654030     -0.59895163
H      -4.19386741      0.86109160      0.35486071
H      -2.12828079      2.11421468      0.85203134
H       0.39668736      2.17478920      0.87035277
H       3.41691463      1.77026512      0.70117552
H       4.75633188     -0.47070150     -0.19978390
H       0.45067290     -2.48871516     -0.99811221
