41
O=C(NC(=O)c1c(F)cccc1F)Nc1ccc(OC(F)(F)C(F)OC(F)(F)F)c(Cl)c1
O      -1.69070021      2.40355556     -0.42605424
C      -1.93405627      1.23903072     -0.12248141
N      -3.22738505      0.78180611     -0.28814994
C      -3.75207942     -0.47582992     -0.02282332
O      -3.05698521     -1.38381098      0.42652878
C      -5.19914529     -0.68808720     -0.30367628
C      -5.78135299     -1.93540852     -0.05821148
F      -5.06611826     -2.95899435      0.42859107
C      -7.13604804     -2.16662777     -0.31110793
C      -7.93727652     -1.14638943     -0.81761603
C      -7.37606373      0.10250483     -1.06857970
C      -6.02118543      0.32121619     -0.81177848
F      -5.52974855      1.54265550     -1.07089233
N      -1.04966810      0.31781680      0.37392354
C       0.32066839      0.47611517      0.64819522
C       1.02331279      1.66715953      0.44635075
C       2.38842520      1.74749919      0.74236303
C       3.06173562      0.62873327      1.22802070
O       4.38677164      0.72146150      1.55626200
C       5.23083464      0.66192198      0.39848007
F       5.13407501      1.83049685     -0.28388759
F       4.79581799     -0.32958513     -0.42159806
C       6.69585255      0.39592659      0.82122300
F       7.07713555      1.34947362      1.72633418
O       7.68082238      0.45961650     -0.20070753
C       7.44107562     -0.48919982     -1.20784331
F       8.59581026     -0.73921313     -1.85350760
F       6.98508744     -1.64062269     -0.68117243
F       6.55026802     -0.00153772     -2.08679107
C       2.36283752     -0.55928718      1.45435414
Cl      3.16028286     -1.95235477      2.09118490
C       1.00032008     -0.63772725      1.15805843
H      -3.83088454      1.50583367     -0.65746807
H      -7.55419241     -3.14936332     -0.10806363
H      -8.99194505     -1.32489640     -1.01500288
H      -7.98486485      0.91158031     -1.46390404
H      -1.45715204     -0.59837629      0.56154490
H       0.53547208      2.55838073      0.06237141
H       2.91247778      2.68837482      0.59247287
H       6.76720405     -0.56210245      1.34824694
H       0.47056446     -1.57174514      1.32990222
