27
C[Si](C)(C)O[Si](C)(C)C
C      -1.67496566      0.74684033      1.83542601
Si     -1.56611253      0.28054946      0.01801215
C      -2.13506863     -1.50030614     -0.17546815
C      -2.74935336      1.38305813     -0.94344662
O      -0.01032564      0.47728062     -0.55936084
Si      1.56076680     -0.03343669     -0.30762250
C       1.69990318     -1.89932296     -0.48476164
C       2.70291090      0.76374899     -1.57252879
C       2.15781768      0.44850080      1.40814520
H      -1.33457125      1.77496015      1.98983816
H      -1.05349601      0.08333556      2.44364608
H      -2.70665907      0.66935940      2.19108654
H      -1.51430985     -2.17287088      0.42339686
H      -2.07093134     -1.81292339     -1.22183956
H      -3.17279697     -1.61020345      0.15305493
H      -3.77262094      1.26359761     -0.57553478
H      -2.46545995      2.43422060     -0.83782336
H      -2.73323847      1.12731682     -2.00694565
H       1.34420961     -2.21994248     -1.46834035
H       1.10375924     -2.40665492      0.27918929
H       2.74019865     -2.21947285     -0.37440558
H       2.66874256      1.85378384     -1.48679135
H       3.73581185      0.43796478     -1.41862172
H       2.40223130      0.48869892     -2.58773067
H       2.07704086      1.52970768      1.55375918
H       1.56235741     -0.04816041      2.17955814
H       3.20415963      0.16037048      1.54610900
