28
CC1=CC(C)(C)Nc2ccccc21
C       0.50697990      2.87863979     -0.19093518
C       0.10220898      1.44206342     -0.05121860
C      -1.18752435      1.07363461      0.04962019
C      -1.67202482     -0.34796102      0.20464722
C      -2.88717148     -0.57629874     -0.70756311
C      -2.07045068     -0.60281464      1.66555481
N      -0.64718069     -1.31575088     -0.19639615
C       0.70355043     -0.97111087     -0.04839822
C       1.66778802     -1.98975804     -0.08569612
C       3.02896041     -1.69388900     -0.01761457
C       3.44428254     -0.36995062      0.06033733
C       2.49907158      0.65790714      0.05676666
C       1.12478381      0.37471696     -0.00971743
H       1.10161070      3.02880797     -1.09832738
H      -0.36265691      3.54138834     -0.26278764
H       1.09142888      3.20520242      0.67561382
H      -1.95762532      1.84122218      0.04249179
H      -3.25632424     -1.60561135     -0.62497632
H      -3.71500018      0.09556304     -0.45243599
H      -2.63170151     -0.40806298     -1.76099039
H      -1.21812328     -0.47367868      2.34343707
H      -2.86154543      0.08298224      1.99055417
H      -2.43889132     -1.62634855      1.80268673
H      -0.84639942     -2.26552004      0.09853341
H       1.35936508     -3.02803571     -0.17177486
H       3.76114384     -2.49628237     -0.03652897
H       4.50370851     -0.13301626      0.10943411
H       2.85773696      1.68196162      0.10124564
