33
C=CCCCCCCCCC(=O)O
C      -5.15126829      1.22244216     -1.71556426
C      -4.63432178      1.22268038     -0.48046325
C      -3.17116566      1.06025521     -0.17914537
C      -2.91395910     -0.20225908      0.64723581
C      -1.45560730     -0.35123879      1.09174273
C      -0.48512022     -0.57742059     -0.06971365
C       0.93629748     -0.83616671      0.43845641
C       1.90854234     -1.05253302     -0.72349026
C       3.32125349     -1.44702493     -0.27543165
C       4.05766876     -0.39068844      0.54813015
C       4.37873646      0.85044361     -0.24075526
O       4.43113656      0.96697430     -1.45266650
O       4.66300452      1.89682180      0.55948095
H      -6.21828244      1.34943888     -1.87087264
H      -4.52850375      1.09567471     -2.59568255
H      -5.30027535      1.35801812      0.36957700
H      -2.59573783      1.02649553     -1.11094302
H      -2.83197089      1.94336505      0.37512070
H      -3.54235095     -0.18095105      1.54717761
H      -3.21557415     -1.08995339      0.07683138
H      -1.39447571     -1.20384444      1.77957540
H      -1.15234895      0.53567302      1.66131031
H      -0.82209550     -1.43177270     -0.66897636
H      -0.47484050      0.29861095     -0.72764750
H       0.93866004     -1.71864492      1.08939344
H       1.25827683      0.01792986      1.04434017
H       1.52289170     -1.85445329     -1.36567848
H       1.94705041     -0.15014985     -1.34432799
H       3.91173534     -1.68671353     -1.16864051
H       3.26074712     -2.37036595      0.31381404
H       3.47108735     -0.11618638      1.43015740
H       5.00997124     -0.80713279      0.89586523
H       4.87083875      2.62267627     -0.06568232
