32
Cc1cc(N=Nc2ccccc2C)ccc1N
C       4.17971861     -0.62826799      1.35268626
C       3.22287514     -0.37760583      0.22010628
C       1.84842994     -0.59817822      0.42746837
C       0.91627437     -0.40969760     -0.60056115
N      -0.45586113     -0.65800301     -0.41604425
N      -0.92902667      0.10875319      0.45227721
C      -2.30813078     -0.13016099      0.61270529
C      -2.75040662     -1.28407461      1.27747434
C      -4.11166141     -1.52138964      1.46975533
C      -5.04667898     -0.60046847      1.00547609
C      -4.62255335      0.55787590      0.35280771
C      -3.25501447      0.80628835      0.15572275
C      -2.81155010      2.05849844     -0.54671575
C       1.37809103     -0.03145929     -1.86012327
C       2.73986009      0.19495475     -2.07712615
C       3.66667189      0.07937552     -1.03342880
N       5.03262899      0.20920266     -1.32589017
H       4.94021176     -1.35761317      1.05553951
H       4.66569041      0.30623959      1.65080898
H       3.66689249     -1.03119578      2.23256874
H       1.49073810     -0.93408427      1.39822652
H      -2.02099952     -2.00226260      1.64300386
H      -4.43940412     -2.42252048      1.98096725
H      -6.10833533     -0.78242685      1.15284552
H      -5.36675976      1.26806984     -0.00084857
H      -2.15321471      2.64586405      0.10152189
H      -2.28238796      1.80731018     -1.47163224
H      -3.66398850      2.69245908     -0.81270951
H       0.67418062      0.07905955     -2.68029431
H       3.07258735      0.46500928     -3.07601027
H       5.22476086      0.81454731     -2.11782259
H       5.60636176      0.44306445     -0.52275487
