28
c1ccc2sc(SN3CCOCC3)nc2c1
C       4.12038966     -1.22501276     -0.02952972
C       4.86010394     -0.23603240      0.61126607
C       4.23379569      0.89145554      1.15175683
C       2.83833258      0.99846482      1.03028662
S       1.79112963      2.24734073      1.58325690
C       0.44385813      1.40089738      0.94243514
S      -1.18989830      2.05230067      1.09017940
N      -2.14928390      0.91234491      0.33785385
C      -2.37677457     -0.40323548      0.96894411
C      -3.61333203     -1.10012317      0.38676318
O      -3.50813252     -1.25569596     -1.03273786
C      -3.34948306      0.02460523     -1.65395899
C      -2.10545252      0.75341554     -1.12966132
N       0.71442904      0.26052903      0.34884124
C       2.07575916      0.01881466      0.39166883
C       2.73134328     -1.10793429     -0.14462609
H       4.62224673     -2.09603538     -0.44475223
H       5.94026351     -0.33968967      0.69380150
H       4.81259805      1.66235718      1.65151028
H      -1.50130536     -1.04645921      0.81996631
H      -2.52552054     -0.28962994      2.04961833
H      -3.71321834     -2.09981046      0.82170545
H      -4.52929607     -0.54446206      0.62211016
H      -3.25376022     -0.14129666     -2.73184767
H      -4.25614502      0.61993499     -1.49060310
H      -1.21189230      0.18729635     -1.41851382
H      -2.05109314      1.73292541     -1.62006474
H       2.15033850     -1.87726501     -0.64383420
