10
C=CCO
C       1.32917943     -0.27519966     -0.73745280
C       0.50688787     -0.22715824      0.31866565
C      -0.98271448     -0.18718765      0.23368388
O      -1.43103039      1.01450962      0.83814232
H       2.40603459     -0.30683427     -0.59991640
H       0.95389001     -0.28674803     -1.75618529
H       0.92989059     -0.22267431      1.32101018
H      -1.34530796     -0.21679718     -0.79861383
H      -1.41623387     -1.03226938      0.77620760
H      -0.95059580      1.74035911      0.40445870
