7
O=[V](=O)O[V](=O)=O
O      -2.09149206      1.53763320     -0.43942073
V      -1.62563691     -0.01759859     -0.06416354
O      -2.10257114     -1.52769444     -0.16359501
O       0.20227722      0.12556575      1.12757112
V       1.13023449     -0.24012267      0.78843587
O       2.05712884     -1.45098418     -0.84491281
O       2.43005957      1.57320092     -0.40391491
