14
Nc1cc(Cl)cc(Cl)c1
N       2.31290562     -0.21201641     -0.43650632
C       0.95623856     -0.09278985     -0.11637186
C       0.37620233      1.17004709      0.03047546
C      -1.00031664      1.29692978      0.22960896
Cl     -1.68894694      2.85996499      0.44542602
C      -1.82216229      0.17494136      0.24515383
C      -1.25389908     -1.07776020      0.03937291
Cl     -2.25870134     -2.47553821      0.01799988
C       0.12174756     -1.21281140     -0.16041508
H       2.89448319      0.54954556     -0.09910832
H       2.71598001     -1.12205523     -0.23301987
H       0.99683204      2.06137110     -0.00939495
H      -2.89247593      0.27704656      0.39730202
H       0.54211290     -2.19687514     -0.35052268
