15
O=[N+]([O-])C(Br)(CO)CO
O       2.32492875     -1.39637080     -0.27986620
N       1.86875802     -0.25629502     -0.11309141
O       2.53894445      0.71126881      0.27994392
C       0.39550468     -0.02315263     -0.39681834
Br      0.34963263      0.61353063     -2.25528803
C      -0.37103437     -1.34621997     -0.27951828
O      -1.77999843     -1.23326579     -0.52048377
C      -0.11520184      1.07708938      0.54417588
O      -1.54589692      1.19100281      0.51708076
H      -0.00022214     -2.09921686     -0.98449629
H      -0.25641215     -1.76419481      0.72771392
H      -2.08725968     -0.38448486     -0.13329696
H       0.15629212      0.85288889      1.58263305
H       0.30016628      2.06040956      0.29313611
H      -1.77820140      1.99701064      1.01817564
