8
BrC(Br)C(Br)Br
Br     -1.26964894     -1.77123745      0.89461703
C      -0.76117625     -0.10127582      0.00553493
Br     -1.53989392      1.44983958      0.89896583
C       0.74520030     -0.02407695     -0.18377638
Br      1.21419189      1.33609986     -1.51334272
Br      1.75231567      0.21690060      1.47098519
H      -1.27423408     -0.15212349     -0.96061599
H       1.13324533     -0.95412634     -0.61236790
