25
O=C(Nc1cccc(Cl)c1)OCC#CCCl
O      -0.35118405      1.85764179      0.48521845
C       0.05802850      0.76487768      0.12602610
N      -0.66967140     -0.33662775     -0.22378603
C      -2.06624961     -0.48889193     -0.25821289
C      -2.96602753      0.52528532      0.08073829
C      -4.34557093      0.30009928      0.02245230
C      -4.83640848     -0.94145388     -0.37537824
C      -3.94323084     -1.95364930     -0.71361513
Cl     -4.54233373     -3.49041949     -1.20613364
C      -2.56581653     -1.73440379     -0.65723386
O       1.37337047      0.45043051      0.00979549
C       2.25179885      1.52570983      0.34947175
C       3.63749232      1.06738303      0.18575870
C       4.76682246      0.67903885      0.04752194
C       6.13885165      0.20134663     -0.12233756
Cl      6.09609759     -1.48611393     -0.66987162
H      -0.09611478     -1.12696304     -0.48655770
H      -2.62663005      1.50776090      0.39607777
H      -5.03422282      1.09844046      0.28905853
H      -5.90872014     -1.11134793     -0.41901486
H      -1.88983622     -2.54134230     -0.92649339
H       2.08359818      1.82684946      1.38994648
H       2.06529372      2.37950584     -0.31220212
H       6.67625387      0.78795564     -0.87225004
H       6.69440949      0.23888812      0.81852658
