42
CC1CCCCN1CCCOC(=O)c1ccc(Cl)c(Cl)c1
C      -4.27553452     -1.89525414      0.03763378
C      -3.38388978     -1.03142259     -0.86826988
C      -4.16346684      0.17620742     -1.42121029
C      -4.40513745      1.24741069     -0.36385699
C      -3.09152789      1.63774661      0.29872727
C      -2.32595724      0.41685093      0.81141111
N      -2.11786717     -0.57635524     -0.25335666
C      -1.26668585     -1.69403953      0.17670191
C       0.19439503     -1.30880515      0.43402314
C       0.84121195     -0.59704437     -0.75046821
O       2.24874150     -0.41630936     -0.50660392
C       2.58762594      0.67973579      0.21418593
O       1.82031791      1.50325391      0.68515921
C       4.06533483      0.75887710      0.37599222
C       4.59386132      1.83711425      1.09904746
C       5.97428939      1.95735347      1.28069961
C       6.83859783      1.00096585      0.74149467
Cl      8.53280854      1.20956048      1.00398260
C       6.31654503     -0.07816923      0.01821684
Cl      7.32512867     -1.29826409     -0.67611584
C       4.93396911     -0.19904919     -0.16432097
H      -3.77542614     -2.82800242      0.31717610
H      -4.56569255     -1.37923471      0.95743624
H      -5.19590264     -2.17272483     -0.48838721
H      -3.12624213     -1.64835844     -1.73998727
H      -5.12215236     -0.14817724     -1.84311638
H      -3.59447019      0.61904408     -2.24978854
H      -5.10774101      0.87939611      0.39263148
H      -4.86683923      2.12822158     -0.82389762
H      -2.46803962      2.17977604     -0.42407121
H      -3.28655609      2.32688514      1.12828432
H      -1.36472089      0.78172102      1.18899282
H      -2.85378898     -0.02377800      1.66572593
H      -1.25958527     -2.46327048     -0.60671913
H      -1.66883783     -2.16890623      1.08023204
H       0.76611510     -2.21900339      0.65720158
H       0.28186048     -0.69377247      1.33677851
H       0.75691388     -1.21365482     -1.65191128
H       0.36575069      0.36535018     -0.97243564
H       3.93128498      2.59019719      1.52467138
H       6.36777163      2.80062663      1.84434566
H       4.54353788     -1.04269857     -0.72897125
