35
CCCCCCCCCOC(C)=O
C      -6.18759628      0.12745730     -0.04556512
C      -4.78169437      0.69765126     -0.14459835
C      -3.73300055     -0.41064356     -0.23614395
C      -2.31930777      0.16737302     -0.33628426
C      -1.27167895     -0.94476562     -0.42385607
C       0.15312645     -0.42672962     -0.64688932
C       0.70896200      0.35398951      0.54692363
C       2.13284172      0.86704814      0.32360346
C       3.17817109     -0.23940762      0.22319889
O       4.46892282      0.38094377      0.12731017
C       5.50517005     -0.49752610      0.04365936
C       6.80128985      0.24729300     -0.05171737
O       5.40605779     -1.71621606      0.04498993
H      -6.29468411     -0.49985353      0.84513653
H      -6.92128249      0.93705852      0.01894595
H      -6.42767413     -0.47934897     -0.92447582
H      -4.71750751      1.34495052     -1.02697044
H      -4.58548917      1.32470575      0.73290165
H      -3.93724042     -1.03730691     -1.11286446
H      -3.80349145     -1.05736855      0.64696524
H      -2.12840403      0.79668416      0.53986870
H      -2.24803905      0.81054011     -1.22164264
H      -1.52644170     -1.60870803     -1.25944393
H      -1.30272664     -1.55678826      0.48578562
H       0.79227718     -1.29421684     -0.84618218
H       0.18002853      0.20048766     -1.54605924
H       0.68126014     -0.27311564      1.44611974
H       0.07183443      1.22273390      0.74628178
H       2.17333915      1.49262215     -0.57690975
H       2.40357903      1.53205945      1.15386213
H       3.01009134     -0.85024229     -0.67000815
H       3.14365595     -0.87283551      1.11716353
H       7.62619402     -0.46789850     -0.11798662
H       6.80635790      0.86889844     -0.95057162
H       6.94309916      0.86047494      0.84173658
