16
Nc1c(Cl)cc([N+](=O)[O-])cc1Cl
N      -2.79487543     -0.08576197     -0.33317446
C      -1.40540372     -0.05815847     -0.09003731
C      -0.74027867      1.15953557      0.15713049
Cl     -1.63800824      2.62494589      0.36657784
C       0.65119569      1.22374466      0.26425872
C       1.40385582      0.05836966      0.08851808
N       2.86628216      0.11593051      0.19745578
O       3.49623661     -0.93733782      0.03306979
O       3.38049518      1.21360300      0.45032079
C       0.77944209     -1.15960420     -0.19805870
C      -0.61307872     -1.20437096     -0.30141335
Cl     -1.35004652     -2.72658426     -0.67149162
H      -3.30821455      0.66811742      0.11861195
H      -3.21832164     -1.00246278     -0.20544423
H       1.13112944      2.17789041      0.47362844
H       1.35959051     -2.06785667     -0.34995221
