28
[Br-].[Br-].c1cc[n+]2c(c1)-c1cccc[n+]1CC2
Br      0.00000000      0.00000000      0.00000000
Br      0.00000000      0.00000000      0.00000000
C      -2.77925404      1.81047398     -0.23191752
C      -3.47433435      0.61525938     -0.28214660
C      -2.77716659     -0.57970259     -0.19543644
N      -1.42431365     -0.59577438     -0.06889145
C      -0.70790156      0.56701018      0.01037636
C      -1.39757724      1.78918217     -0.08377607
C       0.75641234      0.46349568      0.18907791
C       1.55216798      1.49489100      0.71938255
C       2.92728952      1.33430027      0.84056884
C       3.51028669      0.14864871      0.43002848
C       2.70940903     -0.85970526     -0.08310854
N       1.36308861     -0.70492833     -0.18283818
C       0.56642267     -1.82155078     -0.74120953
C      -0.74193921     -1.90720641      0.01949496
H      -3.31401943      2.75911016     -0.30315143
H      -4.55916029      0.61664083     -0.38771571
H      -3.30303142     -1.53267251     -0.22536149
H      -0.87635228      2.74585973     -0.05185282
H       1.12031849      2.43762732      1.05506224
H       3.54444201      2.13559483      1.25046445
H       4.58875950      0.01236613      0.50948920
H       3.14623615     -1.79870028     -0.41934152
H       0.41695868     -1.59251831     -1.80214294
H       1.12995483     -2.75385789     -0.63990730
H      -1.38571800     -2.67960088     -0.41177218
H      -0.59097842     -2.10424275      1.08662472
