73
C[C@@H]1O[C@@H](O[C@H]2[C@H](Oc3cc(O)c4c(c3)O[C@H](c3ccc(O)cc3)CC4=O)O[C@H](CO)[C@@H](O)[C@@H]2O)[C@H](O)[C@H](O)[C@H]1O
C      -3.39117056     -3.85958750     -2.75768750
C      -3.81116298     -2.66807533     -1.90061153
O      -3.54093536     -3.01388258     -0.53484465
C      -3.88327594     -1.97783096      0.40017390
O      -3.04479304     -0.84334711      0.16458900
C      -2.35743451     -0.37613386      1.34430672
C      -1.06992362      0.38550700      0.92088424
O      -0.10575925      0.24863131      1.97175225
C       1.22556100      0.36614381      1.70041255
C       2.02687942      0.42830794      2.84854754
C       3.41127550      0.51774406      2.74342724
O       4.12022429      0.57268231      3.91067099
C       4.01279231      0.52614860      1.48317668
C       3.22385509      0.48117356      0.33327095
C       1.82763487      0.40440770      0.44095378
O       3.73657141      0.45778473     -0.94080324
C       5.08558932      0.94406141     -1.04270360
C       5.59442040      0.68809600     -2.45252339
C       5.38686804     -0.55245872     -3.08495807
C       5.91982857     -0.80378664     -4.35122472
C       6.66179998      0.18239586     -4.99138820
O       7.17977851     -0.11082714     -6.22086443
C       6.87626267      1.42106585     -4.39057918
C       6.34298384      1.67239986     -3.12163339
C       6.01021714      0.26285030     -0.04124029
C       5.47680579      0.52461871      1.33350215
O       6.19616796      0.67212812      2.31802555
O      -1.32995569      1.76588854      0.64719868
C      -1.87694657      2.51225977      1.74687631
C      -0.82132809      3.45421510      2.34321486
O      -1.36421646      4.18562999      3.44144320
C      -2.55759308      1.65411170      2.83034551
O      -3.48914740      2.41704490      3.60681328
C      -3.31204468      0.52834053      2.13553934
O      -4.04323387     -0.25068503      3.09773400
C      -5.38048981     -1.60479739      0.30120564
O      -6.23522953     -2.70046062      0.69060531
C      -5.73021884     -1.22949910     -1.13851738
O      -7.15410973     -1.04949324     -1.26812802
C      -5.29107514     -2.32714179     -2.11426324
O      -5.53196523     -1.87524616     -3.45378222
H      -3.56384329     -3.67087617     -3.82350316
H      -3.93521884     -4.76200178     -2.46378144
H      -2.32565967     -4.07163788     -2.61240134
H      -3.18071120     -1.82265920     -2.19702490
H      -3.69770287     -2.42191100      1.38699156
H      -2.05152491     -1.24556230      1.94157067
H      -0.71613955     -0.07756212     -0.00553903
H       1.56805577      0.40019870      3.83464537
H       5.07849250      0.63081302      3.68811490
H       1.25334577      0.36825865     -0.47887861
H       5.05641496      2.03023863     -0.86652236
H       4.81439090     -1.33530289     -2.58940412
H       5.76748596     -1.76938027     -4.83090262
H       7.68598419      0.65996222     -6.53978406
H       7.45762487      2.19179848     -4.88779509
H       6.52638222      2.63974915     -2.65520951
H       6.05431655     -0.82443274     -0.18478781
H       7.02653579      0.66497295     -0.11417729
H      -2.64998626      3.16241485      1.31098572
H      -0.47615215      4.16092622      1.57972080
H       0.05556450      2.90219241      2.69909558
H      -0.64259317      4.74460643      3.78435604
H      -1.83473547      1.23782268      3.54093076
H      -2.99566310      3.21578632      3.89697288
H      -4.07329122      0.96091718      1.47295472
H      -4.40976805      0.41215462      3.72296767
H      -5.63447908     -0.76344095      0.95486878
H      -6.01690350     -2.91327679      1.61754439
H      -5.26943742     -0.27170837     -1.41306383
H      -7.54531435     -1.78945332     -0.75335904
H      -5.90697709     -3.22307115     -1.96152638
H      -6.41199952     -1.45092007     -3.43009115
