17
NCC(=O)NCC(=O)O
N      -2.42059904     -0.11423809     -0.62469005
C      -1.23654376     -0.49269739     -1.42456906
C       0.05103498     -0.32623928     -0.61038112
O       1.17825346     -0.41878917     -1.09054217
N      -0.13695630     -0.02997640      0.71618509
C       0.90624597     -0.19940284      1.71885982
C       2.04341517      0.82377252      1.72014266
O       2.60371921      1.19118727      2.74594224
O       2.47459569      1.21260413      0.50033594
H      -3.25539740     -0.32880168     -1.17367998
H      -2.42498094      0.90431781     -0.52794722
H      -1.31658664     -1.54314122     -1.71917038
H      -1.17667178      0.13688240     -2.31706619
H      -1.10411096     -0.16444152      1.01075963
H       1.34472942     -1.19578049      1.60143669
H       0.40653936     -0.14125195      2.69130746
H       2.06331354      0.68599590     -0.22645299
