33
O=[N+]([O-])c1cc(C2CCCCC2)c(O)c([N+](=O)[O-])c1
O       5.10070153     -1.85457635      0.68127102
N       3.89542295     -2.12413475      0.59289194
O       3.42054606     -3.26550090      0.66457836
C       2.96241105     -1.00652784      0.38801837
C       1.58788741     -1.26131129      0.28184641
C       0.66977353     -0.20926660      0.08515608
C      -0.81082048     -0.56721240     -0.02061516
C      -1.65325546      0.02463843      1.12343501
C      -3.11647883     -0.40345766      1.01580504
C      -3.70410550     -0.06392388     -0.35107405
C      -2.87559317     -0.66081773     -1.48519562
C      -1.41033887     -0.23489264     -1.39864862
C       1.16454529      1.10822253     -0.00276461
O       0.23872830      2.09939887     -0.19393277
C       2.54915122      1.35481694      0.10522004
N       3.08554165      2.71919859      0.01648014
O       4.30967924      2.87051627      0.11879473
O       2.27557446      3.64335148     -0.15661564
C       3.45315266      0.29897721      0.30094212
H       1.21876424     -2.28519546      0.35165637
H      -0.88843637     -1.65979828      0.08433984
H      -1.61100575      1.11940641      1.12110088
H      -1.25147996     -0.29944907      2.09147796
H      -3.19443769     -1.48388770      1.18887516
H      -3.70199087      0.08789210      1.80110310
H      -3.75094641      1.02581941     -0.46772300
H      -4.73289909     -0.43635818     -0.41183878
H      -3.29257610     -0.34952093     -2.44964439
H      -2.94044527     -1.75525224     -1.44822116
H      -0.83932892     -0.73979133     -2.18769143
H      -1.34801971      0.83843380     -1.60934798
H       0.66788599      2.97978606     -0.24318559
H       4.52239286      0.49041712      0.38422775
