46
COc1ccc(Cc2nccc3cc(OC)c(OC)cc23)cc1OC
C       4.80748918      0.25350097     -2.85367636
O       4.42576392      0.75884942     -1.58235182
C       3.46993650      0.06197842     -0.89110327
C       2.85333887     -1.11083949     -1.33383659
C       1.87124182     -1.73502464     -0.55399471
C       1.47847903     -1.19698367      0.67908944
C       0.41205807     -1.86977613      1.51738489
C      -0.90698926     -2.09810297      0.80236889
N      -1.14634188     -3.39312343      0.45292968
C      -2.29434404     -3.66566373     -0.19228117
C      -3.23612792     -2.70961646     -0.51905010
C      -2.99820517     -1.37734249     -0.16864681
C      -3.93995013     -0.37879481     -0.48478258
C      -3.71737949      0.95906331     -0.14818827
O      -4.57681620      1.98952500     -0.42494963
C      -5.87508159      1.65342513     -0.89617375
C      -2.52369485      1.30457337      0.49480989
O      -2.32665033      2.62299793      0.82685000
C      -1.03446070      3.11032543      0.46756163
C      -1.59825308      0.31571896      0.84480700
C      -1.80611174     -1.04146416      0.50956560
C       2.10951624     -0.03196028      1.13236955
C       3.09560388      0.58338066      0.35616940
O       3.62375260      1.75696428      0.83557757
C       4.89514141      1.51539922      1.44191159
H       3.96243292      0.25847021     -3.54893961
H       5.24420030     -0.74866100     -2.76690211
H       5.57790938      0.91660176     -3.25969573
H       3.10878439     -1.57041468     -2.28259505
H       1.40650093     -2.64948730     -0.92201362
H       0.81461323     -2.83507756      1.85333456
H       0.22044358     -1.30196283      2.43743348
H      -2.44460550     -4.71049357     -0.44935323
H      -4.13964549     -3.00646295     -1.04044908
H      -4.84627689     -0.66948022     -1.00647788
H      -6.45789357      2.57684822     -0.95465428
H      -5.82734775      1.22590580     -1.90323147
H      -6.39077484      0.97880442     -0.20271035
H      -0.71820676      2.75199052     -0.51975546
H      -0.29668402      2.84459432      1.23185898
H      -1.08978703      4.20186919      0.42429564
H      -0.71273274      0.60919591      1.39640864
H       1.83862594      0.41121054      2.08754157
H       5.61850171      1.10054143      0.73174100
H       5.27906560      2.47945278      1.78957585
H       4.79096147      0.85954517      2.31357579
