94
C[C@@H]1C/C=C/C=C/C=C/C=C/[C@H](O[C@@H]2O[C@H](C)[C@@H](O)[C@H](N)[C@@H]2O)C[C@@H]2O[C@](O)(C[C@@H](O)C[C@H]3O[C@@H]3/C=C/C(=O)O1)C[C@H](O)[C@H]2C(=O)O
C       7.92558973     -2.52253515     -0.50468253
C       7.31499702     -1.28476812      0.14911282
C       6.21051800     -1.60043236      1.18810640
C       5.32119890     -2.78292338      0.89103282
C       4.02442223     -2.80191635      0.55171814
C       3.17516831     -1.66409278      0.27107203
C       1.83576914     -1.69505331      0.13776137
C       0.96580119     -2.81529935      0.43560284
C      -0.30314334     -2.96963454      0.02859102
C      -1.01542127     -2.12561280     -0.89558662
C      -1.97003372     -1.23612414     -0.58465539
C      -2.52070932     -0.89930510      0.77548684
O      -3.94242880     -0.89635274      0.63467325
C      -4.59204923     -1.74483100      1.59757315
O      -4.35170613     -3.12337935      1.27184701
C      -5.37990893     -3.76167731      0.49100173
C      -4.74608788     -4.98396070     -0.16606566
C      -6.01143708     -2.80087207     -0.53471230
O      -6.98037181     -3.42291476     -1.37113432
C      -6.68339690     -1.59434883      0.18970339
N      -6.54370037     -0.36467808     -0.65162063
C      -6.09563843     -1.42511530      1.61214927
O      -6.37532310     -0.14651100      2.17106323
C      -2.07498687      0.46445231      1.34901092
C      -1.96419718      1.64571330      0.35789220
O      -0.67002082      2.22450816      0.62090054
C      -0.25530307      3.21015601     -0.31451232
O      -0.19581081      2.64305811     -1.61337738
C       1.15226537      3.70125940      0.08469961
C       2.11544544      2.53852340      0.38549955
O       2.27115757      1.72597466     -0.78208068
C       3.46323384      3.00875838      0.95732136
C       4.47611888      3.37547254     -0.08599087
O       5.82189910      3.47793396      0.40685719
C       5.52920272      2.35316111     -0.44447800
C       6.04305832      2.26653027     -1.82049981
C       6.97281326      1.41795468     -2.29412886
C       7.66606447      0.41319288     -1.46898774
O       8.88139902      0.35928493     -1.38674915
O       6.76824413     -0.40278964     -0.85383917
C      -1.24741821      4.37488508     -0.30911337
C      -2.69108406      3.88911917     -0.46944290
O      -3.56085474      4.99970654     -0.22712439
C      -3.00765091      2.75348698      0.51239717
C      -4.40912612      2.25423433      0.29843506
O      -5.26537771      2.16426536      1.16346201
O      -4.69394107      1.87266761     -0.96239463
H       8.81387794     -2.25450389     -1.09151364
H       7.22739448     -2.99312698     -1.20978131
H       8.24446953     -3.25498230      0.24803646
H       8.09954494     -0.74027235      0.69519616
H       6.70215222     -1.83323855      2.14374787
H       5.61730819     -0.69878499      1.37450068
H       5.80317495     -3.75289758      1.01009196
H       3.56834198     -3.78051109      0.41832555
H       3.67702280     -0.71787230      0.08121115
H       1.34532104     -0.76997095     -0.16394245
H       1.36784562     -3.58909239      1.08278482
H      -0.84876482     -3.85380997      0.34763941
H      -0.74758231     -2.26366378     -1.94388917
H      -2.43060608     -0.71022366     -1.42032136
H      -2.21397803     -1.66579566      1.50149423
H      -4.17110808     -1.54112541      2.59075333
H      -6.15143388     -4.13588253      1.17667056
H      -4.32289205     -5.64740398      0.59790559
H      -5.47948226     -5.55257976     -0.74417454
H      -3.91749947     -4.69669834     -0.82500075
H      -5.20813033     -2.43576837     -1.18912960
H      -6.50867532     -3.96678517     -2.02268871
H      -7.76590213     -1.75869470      0.29011854
H      -7.03703808     -0.56995008     -1.52858866
H      -5.54885877     -0.32788801     -0.90559032
H      -6.59017961     -2.14566027      2.27473053
H      -6.37683581      0.50238929      1.43208845
H      -1.08933704      0.30170634      1.80801348
H      -2.74662502      0.73986399      2.17006120
H      -1.96978981      1.28669330     -0.67247690
H       0.52894442      1.98404653     -1.55704644
H       1.07399007      4.32278212      0.98537265
H       1.55942748      4.31705150     -0.72713536
H       1.66205670      1.89663639      1.15456970
H       2.83268117      2.20045434     -1.42442911
H       3.86606290      2.19240757      1.57251140
H       3.31948746      3.85392337      1.63977764
H       4.14989171      4.14440729     -0.77313446
H       5.44362991      1.39489026      0.05826330
H       5.66131302      3.01168527     -2.51605252
H       7.34602028      1.50295723     -3.31091072
H      -1.01762207      5.09617696     -1.10523276
H      -1.17652472      4.92784099      0.64115303
H      -2.85786922      3.56326366     -1.50436505
H      -3.51314565      5.58076605     -1.00374727
H      -2.96524489      3.16452676      1.53004748
H      -5.64207213      1.60354283     -0.88253517
