36
CN1C(C(=O)Nc2ccccn2)=C(O)c2ccccc2S1(=O)=O
C      -0.43820886      1.09522086     -1.88981558
N      -0.61498336     -0.08603494     -1.00607770
C      -0.29197906      0.13273640      0.38851509
C       1.12513515     -0.09718131      0.83462079
O       1.47417070      0.23142171      1.96546884
N       1.89493751     -0.67767818     -0.13658021
C       3.24287593     -1.02136812     -0.09588924
C       4.06506867     -0.82085797      1.00401202
C       5.40243132     -1.20742614      0.92179354
C       5.87738481     -1.77946573     -0.25031862
C       4.98905259     -1.94012295     -1.29766138
N       3.68957376     -1.57190122     -1.24511562
C      -1.24221741      0.59269259      1.23255458
O      -0.99151525      0.89801516      2.56198965
C      -2.64709600      0.81789755      0.82542119
C      -3.49485108      1.67267126      1.54317041
C      -4.82030890      1.87337838      1.13931686
C      -5.32186132      1.22073231      0.01280634
C      -4.50203444      0.35945762     -0.71067206
C      -3.18502721      0.16245827     -0.28642914
S      -2.11091968     -0.89860380     -1.18967402
O      -2.48461328     -0.83100535     -2.58699591
O      -2.04321584     -2.15656332     -0.47883001
H       0.53003776      1.56945311     -1.69653810
H      -0.43656841      0.78139778     -2.93785514
H      -1.22202290      1.84142822     -1.73090613
H       1.44795153     -0.92312905     -1.01284809
H       3.70350424     -0.37881448      1.92407268
H       6.06423231     -1.06311109      1.77128860
H       6.91088537     -2.09287468     -0.34431058
H       5.30644581     -2.38348454     -2.23728090
H      -0.04343298      0.71879222      2.75511222
H      -3.13056564      2.19401545      2.42701179
H      -5.46213782      2.54091537      1.71026453
H      -6.35235561      1.38155299     -0.29547358
H      -4.88777243     -0.15461441     -1.58814713
