64
O=C1NC(=O)C2C3C(C(O)(c4ccccc4)c4ccccn4)=CC(C3=C(c3ccccc3)c3ccccn3)C12
O       2.59781546     -3.96989452     -0.36416757
C       1.79711346     -3.35959608      0.32445406
N       1.87628833     -3.21223838      1.67237578
C       0.91556110     -2.40645151      2.19754787
O       0.85072684     -2.07644205      3.37016291
C      -0.03318913     -1.99519377      1.10522408
C      -0.01003069     -0.48836396      0.77047233
C      -1.00110406     -0.26930728     -0.38030173
C      -2.27998273      0.51943709     -0.18703450
O      -1.86904107      1.64973472      0.61517479
C      -3.34001326     -0.25357065      0.61837871
C      -4.14344173      0.40587056      1.56764109
C      -5.12985548     -0.27811153      2.28249053
C      -5.34226931     -1.63487275      2.05654777
C      -4.57162319     -2.30820490      1.11393560
C      -3.58453275     -1.62438018      0.39953611
C      -2.85933107      1.10199806     -1.50070310
C      -3.54090156      0.31616294     -2.43247968
C      -4.03262919      0.90917924     -3.59325419
C      -3.83557957      2.26725508     -3.80430178
C      -3.14955193      2.98474579     -2.84170289
N      -2.66055944      2.44186898     -1.70539102
C      -0.44448587     -0.84045362     -1.47482656
C       0.89100649     -1.43434293     -1.06095599
C       1.29816946     -0.43667159      0.00196218
C       2.42312987      0.28870912      0.16002671
C       2.49192119      1.28016003      1.25659436
C       2.57545128      0.89642953      2.59891546
C       2.62792998      1.86081479      3.60737294
C       2.61273886      3.21560204      3.28162303
C       2.54732310      3.60850120      1.94746097
C       2.48565084      2.64523058      0.93878271
C       3.52765901      0.12264719     -0.81470195
C       4.78875498     -0.28207492     -0.38349680
C       5.79892800     -0.44181200     -1.32834594
C       5.52559048     -0.18593599     -2.66628453
C       4.24675190      0.22202095     -3.00571773
N       3.24428205      0.37936618     -2.11480782
C       0.57107503     -2.64747462     -0.17213738
H       2.63686328     -3.58286391      2.21891138
H      -1.02837235     -2.38623831      1.33347634
H      -0.09336192      0.18948848      1.61934871
H      -1.88934539      2.40399849     -0.01051298
H      -4.00114875      1.46827012      1.76095361
H      -5.73069693      0.25335262      3.01587836
H      -6.10955424     -2.16583753      2.61352774
H      -4.74006348     -3.36663052      0.93271666
H      -3.00682227     -2.17973587     -0.33551809
H      -3.69422930     -0.74468753     -2.27153145
H      -4.56830681      0.31287701     -4.32674796
H      -4.20840264      2.75507302     -4.69778069
H      -2.96943558      4.04965948     -2.96040402
H      -0.83463959     -0.86552241     -2.48077970
H       1.58750042     -1.61294152     -1.87877163
H       2.59162887     -0.15218220      2.87831636
H       2.66681133      1.55026155      4.64701431
H       2.64627229      3.96479202      4.06800091
H       2.53126538      4.66456149      1.69019047
H       2.42230969      2.96319280     -0.09966149
H       4.98175821     -0.48405859      0.66526427
H       6.78887920     -0.77167900     -1.02329885
H       6.28901667     -0.30278962     -3.42694156
H       3.98310449      0.43439125     -4.03720743
H      -0.11677628     -3.36509221     -0.63225067
