36
CC(=O)O[C@H]1C[C@@H](C)CC[C@@H]1C(C)C
C       0.33196688      4.20041936     -0.07447630
C       0.52115380      2.85196332     -0.69871905
O       0.89675850      2.67033465     -1.84772763
O       0.21398214      1.87949673      0.20213146
C       0.34040535      0.51968937     -0.25916953
C       1.79307304      0.06722707     -0.06066027
C       1.98483154     -1.40689723     -0.42713114
C       3.42965079     -1.84005622     -0.18611528
C       1.01586656     -2.28938041      0.36591282
C      -0.43579942     -1.84579487      0.18334661
C      -0.63380516     -0.36536173      0.55685667
C      -2.11320329      0.11542535      0.44841078
C      -2.69469666      0.04130836     -0.96598242
C      -3.02937669     -0.64014172      1.41823989
H      -0.71012496      4.32444393      0.23068557
H       0.57521446      4.97604989     -0.80628285
H       1.00033603      4.30870531      0.78336702
H       0.08379213      0.45167873     -1.32364248
H       2.46070781      0.69278026     -0.66606631
H       2.09138279      0.24518108      0.98148003
H       1.77014800     -1.52926749     -1.49710868
H       3.57461410     -2.88619896     -0.47555772
H       4.12131839     -1.23020745     -0.77679616
H       3.70569255     -1.73916285      0.86902745
H       1.11569081     -3.33361663      0.04610301
H       1.26977766     -2.25973473      1.43336632
H      -0.72762010     -2.01704018     -0.85936529
H      -1.06998010     -2.48764920      0.80366983
H      -0.35930103     -0.25024951      1.61644339
H      -2.14444441      1.16915680      0.75543500
H      -2.72926524     -0.98682048     -1.33885121
H      -3.71976147      0.42864914     -0.97743948
H      -2.11675652      0.64492954     -1.67127909
H      -4.02089804     -0.17485814      1.44804862
H      -3.16682445     -1.68451978      1.12143087
H      -2.62450576     -0.62048129      2.43533866
