16
OCc1ccc(Cl)cc1Cl
O      -2.49687842     -1.28983082      0.48375788
C      -2.00011005      0.02916913      0.28207568
C      -0.50548333      0.04765163      0.06729061
C       0.24716889     -1.13984563      0.07790784
C       1.62992561     -1.11723049     -0.12134779
C       2.27789371      0.09529874     -0.33400585
Cl      3.98056008      0.12284290     -0.57933087
C       1.55788219      1.28549319     -0.34954158
C       0.17453701      1.25991497     -0.14990802
Cl     -0.66474629      2.77222532     -0.18041912
H      -3.45692528     -1.20641728      0.61226426
H      -2.25479202      0.61729361      1.16979107
H      -2.50645620      0.44199370     -0.59654896
H      -0.24269421     -2.09865197      0.24285872
H       2.18981417     -2.04896033     -0.10865006
H       2.07030414      2.22905334     -0.51619379
