24
O=[N+]([O-])c1ccc(-c2ccccc2)cc1
O      -5.04015975     -0.10546309      1.40604255
N      -4.53025953     -0.12754757      0.27656540
O      -5.17161887     -0.18204669     -0.78262927
C      -3.06558792     -0.08631101      0.18714952
C      -2.44564595     -0.09082129     -1.06706734
C      -1.04939297     -0.05184502     -1.14489704
C      -0.25600499     -0.00720950      0.01562842
C       1.21296566      0.03415029     -0.07405015
C       1.94954135      1.04247687      0.57002310
C       3.34395387      1.08265653      0.48485488
C       4.02609652      0.11335593     -0.24578649
C       3.31562215     -0.89515436     -0.89141168
C       1.92115302     -0.93349786     -0.80632365
C      -0.90369634     -0.00314714      1.26412995
C      -2.29903004     -0.04276604      1.35672250
H      -3.02621296     -0.12114913     -1.98676918
H      -0.57791057     -0.04406282     -2.12690362
H       1.43749295      1.81717067      1.13733156
H       3.89549166      1.87303666      0.98746801
H       5.11054883      0.14388932     -0.31199000
H       3.84541296     -1.65508940     -1.46003734
H       1.38818616     -1.73761469     -1.30983626
H      -0.31666007      0.01887216      2.18151565
H      -2.76428516     -0.04188285      2.34027048
