8
FC(F)(F)C(F)(F)Cl
F      -1.11437440      1.17600008     -0.76233582
C      -0.77505530      0.10713109      0.00228838
F      -1.22064906      0.36400824      1.25836480
F      -1.49381926     -0.94789437     -0.45946180
C       0.73254350     -0.17307517     -0.03102116
F       1.14251421     -0.45989365     -1.29882246
F       1.03644348     -1.27036950      0.71814573
Cl      1.69239682      1.20409329      0.57284232
