21
COCC(C)OC(C)=O
C       2.50032251     -1.68049120      0.10556895
O       1.59107850     -0.66698426     -0.30193061
C       1.00627208      0.00022958      0.82203408
C       0.00668179      1.07144545      0.35189669
C       0.65540088      2.07270806     -0.59881637
O      -1.09629727      0.47244607     -0.36196255
C      -2.03445983     -0.14467426      0.40321393
C      -3.09518743     -0.74196943     -0.46926165
O      -2.02664509     -0.20794229      1.62463317
H       1.98275472     -2.44706773      0.69021132
H       2.91867359     -2.14781657     -0.78985705
H       3.31878488     -1.24878084      0.68957165
H       1.80175005      0.47376425      1.40931482
H       0.50410095     -0.74562984      1.44702328
H      -0.37843625      1.62196097      1.21954692
H       1.51866100      2.55931711     -0.13495145
H      -0.06739466      2.84536981     -0.88336260
H       0.97672668      1.59228319     -1.52928801
H      -3.84083459     -1.24064132      0.15657091
H      -2.65073690     -1.48320496     -1.13818476
H      -3.59121561      0.04567821     -1.04186851
