56
CCCCC(CC)COP(=O)(O)OCC(CC)CCCC
C      -1.97170079     -2.02613798      1.95848022
C      -2.96200862     -0.88874781      1.76319026
C      -2.79218736     -0.15227584      0.43121508
C      -3.13358814     -1.02074896     -0.78511429
C      -3.08315670     -0.28553551     -2.14620656
C      -4.06251148      0.89867118     -2.26483538
C      -5.51530709      0.52427714     -2.01121623
C      -1.66257719      0.18705471     -2.49799775
O      -0.78585613     -0.92573452     -2.55059544
P       0.78707212     -0.67352106     -2.37213917
O       1.65917883     -1.86451561     -2.59406689
O       1.09582083      0.48292463     -3.44024056
O       0.95474489      0.05932073     -0.95678023
C       2.23751055      0.55978061     -0.62540533
C       2.42442597      0.58341144      0.89998349
C       1.34695548      1.43038464      1.61662554
C       1.30578558      2.88478977      1.16869022
C       2.40836269     -0.83891559      1.51009533
C       3.47157023     -1.81137957      0.98305434
C       4.92212026     -1.33912819      1.10426094
C       5.35223448     -1.06349054      2.53674964
H      -2.14016766     -2.83457167      1.24103335
H      -2.07795742     -2.44769768      2.96337581
H      -0.94267500     -1.67221444      1.84725037
H      -3.98442912     -1.27440475      1.85008878
H      -2.82531314     -0.16692121      2.57727103
H      -1.76377184      0.21727069      0.35498903
H      -3.44622325      0.72658489      0.45300505
H      -2.44625027     -1.87420440     -0.82609053
H      -4.13164417     -1.45459008     -0.64865680
H      -3.36930106     -1.03306061     -2.90014640
H      -3.99283837      1.31162852     -3.27928417
H      -3.77331823      1.70900157     -1.58571630
H      -6.16577483      1.37642676     -2.23374850
H      -5.82326909     -0.31142449     -2.64751656
H      -5.68285788      0.24726649     -0.96639917
H      -1.66042959      0.65913118     -3.48643455
H      -1.30605409      0.92876319     -1.77641008
H       1.38531818      0.07760931     -4.27873267
H       2.32954903      1.56770842     -1.04207562
H       3.01783441     -0.04363711     -1.10005350
H       3.39836917      1.04188479      1.11060360
H       1.54552991      1.41493393      2.69608641
H       0.35466349      0.98543304      1.47786910
H       2.29376746      3.34902286      1.24717421
H       0.95669900      2.97800373      0.13627417
H       0.61389149      3.45124661      1.80096809
H       1.42435301     -1.29456500      1.34126970
H       2.51561695     -0.76224547      2.59953082
H       3.36386043     -2.75953352      1.52604291
H       3.26512425     -2.04788039     -0.06706284
H       5.57324683     -2.11880082      0.69004612
H       5.08633885     -0.44502788      0.49344868
H       4.80695819     -0.21650446      2.96368705
H       6.41910498     -0.82060765      2.56832186
H       5.18516102     -1.93889701      3.17224434
