43
CN1C2CC(OC(=O)C(CO)c3ccccc3)CC1C1OC12
C      -5.12429554     -0.43971658      1.15007560
N      -3.73896984     -0.30884163      0.71426457
C      -3.18202176      1.04935001      0.91131072
C      -1.66276771      0.80664631      0.99239948
C      -1.11711733      0.11226161     -0.27826123
O       0.16724411     -0.45690585      0.04199323
C       1.01340905     -0.67296319     -1.00591784
O       0.75027531     -0.42972829     -2.17791981
C       2.33536779     -1.23191843     -0.51073301
C       2.99065949     -2.05993039     -1.62392562
O       3.90014157     -3.00820374     -1.06095762
C       3.25849430     -0.13886988      0.00801932
C       3.88345093     -0.28892286      1.25523727
C       4.73725092      0.69992531      1.74701705
C       4.98127553      1.84821593      0.99716173
C       4.37514576      2.00738839     -0.24688835
C       3.52106788      1.01985410     -0.74136624
C      -2.07025875     -0.97129522     -0.83968227
C      -3.54850142     -0.54893439     -0.73466146
C      -3.75262486      0.79321014     -1.39900125
O      -4.81584840      1.63413935     -0.93294780
C      -3.51936446      1.81322428     -0.34839796
H      -5.83049292      0.23086783      0.65474391
H      -5.19307192     -0.25818079      2.22842896
H      -5.46948969     -1.46676322      0.98704153
H      -3.54729916      1.54184538      1.81823951
H      -1.13151825      1.75697878      1.13041525
H      -1.42554538      0.20081704      1.87759665
H      -0.97528329      0.89358590     -1.03777983
H       2.09571992     -1.92003356      0.31235149
H       2.24134589     -2.63336207     -2.18084878
H       3.53816724     -1.43350458     -2.33678238
H       4.37358036     -3.42239347     -1.80342123
H       3.71459775     -1.18425696      1.85066654
H       5.21537343      0.57032667      2.71449633
H       5.64782159      2.61628584      1.38033313
H       4.56982261      2.90058018     -0.83497751
H       3.06537116      1.16590748     -1.71921968
H      -1.90880186     -1.91761740     -0.30594816
H      -1.81328470     -1.17036767     -1.88725999
H      -4.20567454     -1.32682724     -1.13647659
H      -3.37717523      0.91134720     -2.40189843
H      -2.96617560      2.71677969     -0.54292935
