27
C=CCCCCCCC
C       4.75836578      1.24106501      0.15845537
C       4.00159500      0.16854260     -0.10535372
C       2.62689527      0.23525254     -0.70618149
C       1.57604490     -0.34048299      0.24530258
C       0.17668227     -0.28463869     -0.37322791
C      -0.87372846     -0.85773168      0.58074595
C      -2.27593048     -0.93075578     -0.03044250
C      -2.88278528      0.44144057     -0.32558848
C      -4.31533232      0.31857515     -0.82238641
H       5.74851841      1.12934492      0.58960905
H       4.41187894      2.24922522     -0.04644720
H       4.39572136     -0.82185129      0.11407996
H       2.63047065     -0.33304399     -1.64399341
H       2.36621180      1.26960662     -0.96178705
H       1.82677983     -1.38045530      0.49017596
H       1.58207867      0.22134727      1.18801716
H      -0.06505132      0.75582064     -0.61708465
H       0.16821119     -0.85039920     -1.31262361
H      -0.90407923     -0.26096466      1.50050121
H      -0.57590310     -1.87247616      0.87288454
H      -2.24590340     -1.52843661     -0.94964942
H      -2.92683798     -1.46603288      0.67215760
H      -2.86848696      1.05836725      0.58024324
H      -2.29287130      0.96369023     -1.08619394
H      -4.36151064     -0.27046393     -1.74393851
H      -4.73019417      1.30964842     -1.03125667
H      -4.95083942     -0.16419331     -0.07311964
