36
CCCCCCCCCCCO
C      -5.95549033     -1.08519590     -0.01322906
C      -4.50781991     -0.94719584     -0.45995324
C      -3.86590251      0.31633497      0.11450112
C      -2.44466529      0.56875308     -0.40013984
C      -1.43144372     -0.47354186      0.08086861
C      -0.00898399     -0.22428826     -0.43485655
C       0.64881715      1.01878318      0.17046542
C       2.07056672      1.26569589     -0.34555298
C       3.07619383      0.20218792      0.10109894
C       4.49448139      0.56361659     -0.33810729
C       5.50335771     -0.48961593      0.09770256
O       6.79668366     -0.09533045     -0.33908026
H      -6.55389834     -0.23329236     -0.35161626
H      -6.39565438     -1.99610198     -0.43093089
H      -6.02526137     -1.14317358      1.07770196
H      -3.95698581     -1.83659171     -0.13670464
H      -4.47115851     -0.91955203     -1.55503419
H      -3.85687560      0.26344697      1.21002712
H      -4.48350347      1.18269922     -0.15386343
H      -2.14108600      1.56296836     -0.05445574
H      -2.45115906      0.60233779     -1.49624415
H      -1.42498758     -0.50899074      1.17689664
H      -1.73786813     -1.46651827     -0.26670803
H       0.58929828     -1.10885162     -0.18931724
H      -0.02242202     -0.14377969     -1.52843112
H       0.66377721      0.93597546      1.26386658
H       0.05217646      1.90497895     -0.07201117
H       2.05892604      1.32937743     -1.44045627
H       2.40061969      2.24481638      0.02371429
H       3.04491366      0.10151659      1.19263987
H       2.80867641     -0.77149557     -0.32371298
H       4.78470288      1.53706887      0.07668241
H       4.53659670      0.67787029     -1.42856591
H       5.26812848     -1.46277790     -0.34488557
H       5.51898513     -0.58808838      1.18780305
H       7.41826460     -0.78404588     -0.04779476
