21
Cc1cccc(C)c1C
C       2.58003463     -0.07664829      0.23468376
C       1.16532671      0.42817227      0.13003901
C       0.94498366      1.81362098      0.17241670
C      -0.34158305      2.33306094      0.07482931
C      -1.42570590      1.47441543     -0.07350042
C      -1.23971572      0.08405159     -0.11944331
C      -2.44969338     -0.79631760     -0.28706734
C       0.06327706     -0.45258155      0.01426651
C       0.28185656     -1.94528671     -0.03393249
H       3.30534002      0.73918900      0.14388364
H       2.79591626     -0.78682915     -0.57002312
H       2.73785252     -0.55908483      1.20431708
H       1.78164927      2.50056025      0.27929582
H      -0.49878433      3.40758085      0.10814569
H      -2.42381774      1.89882840     -0.15694602
H      -2.65915360     -1.33130022      0.64447020
H      -3.33918833     -0.21153184     -0.54538227
H      -2.29352714     -1.51504706     -1.09796370
H       1.14786487     -2.24735065      0.56262703
H      -0.56788473     -2.49284142      0.38466048
H       0.43495233     -2.26466039     -1.06937655
