20
Cc1cc(C)nc(C)c1
C      -1.96233565     -1.99490943      0.10546348
C      -0.91163907     -0.92715127      0.07645911
C      -1.26648156      0.42219706      0.04512711
C      -0.26346591      1.38540046     -0.01399024
C      -0.62019663      2.84122785     -0.04194043
N       1.05197288      1.06937918     -0.05251390
C       1.38902321     -0.24129750     -0.03651469
C       2.84972289     -0.57453576     -0.08923943
C       0.44252865     -1.26013979      0.02183005
H      -2.24609573     -2.26904121     -0.91525498
H      -1.59740114     -2.88812482      0.62337620
H      -2.85389465     -1.65124322      0.64049569
H      -2.30973659      0.72190580      0.06696916
H      -1.17878903      3.11110551      0.85967138
H       0.28016019      3.46265218     -0.08361223
H      -1.22934417      3.06430579     -0.92337106
H       3.07007676     -1.16798172     -0.98199331
H       3.14075101     -1.14105113      0.80077513
H       3.45636038      0.33602485     -0.12687608
H       0.75878415     -2.29872282      0.02513903
