18
Nc1cccc(S(=O)(=O)O)c1
N       2.44728338     -1.17767161      1.01795319
C       1.52330844     -0.42105223      0.28952818
C       1.91046510      0.78970075     -0.29564057
C       0.97573153      1.61880348     -0.92428959
C      -0.37043178      1.26421479     -0.93744258
C      -0.76579213      0.08447574     -0.30538297
S      -2.47855222     -0.34898998     -0.24480098
O      -2.68459076     -1.45066443     -1.15641431
O      -3.25691253      0.86922381     -0.31884280
O      -2.70891530     -0.89091199      1.25787249
C       0.16690747     -0.74445874      0.32695711
H       3.40656366     -1.07443593      0.70070541
H       2.18667678     -2.15281374      1.13235160
H       2.95259437      1.09928778     -0.26784368
H       1.30062909      2.54642066     -1.38926262
H      -1.09827497      1.91263910     -1.41984411
H      -3.34063330     -0.28048195      1.69389248
H      -0.16605682     -1.64328551      0.84050373
