19
CN1CSC(=S)N(C)C1
C       2.14974996     -1.11950399      0.46419293
N       1.07512568     -0.13677921      0.60205016
C       1.49507034      1.13672834      0.04665163
S       0.32837020      2.43341523      0.41333799
C      -1.19882679      1.63447794      0.08237202
S      -2.51398868      2.61424839     -0.31126601
N      -1.24596859      0.24551260      0.24040883
C      -2.52672234     -0.45980523      0.20741340
C      -0.10761717     -0.58420284     -0.10492536
H       3.04331489     -0.79269923      1.00802269
H       2.42665092     -1.29083186     -0.58270593
H       1.85365378     -2.07883659      0.90349027
H       2.44679762      1.44769366      0.49247759
H       1.65627403      1.08603064     -1.03771156
H      -2.43787887     -1.40880216      0.74538898
H      -3.31410322      0.11880251      0.69719022
H      -2.80287105     -0.65110084     -0.83413957
H       0.01121234     -0.58243182     -1.19682074
H      -0.33824303     -1.61191557      0.20135259
