18
COP(=O)(OC)OC=C(Cl)Cl
C      -2.10330795     -1.88873581      0.37929114
O      -0.83558574     -1.31986527      0.63376424
P      -0.39820524     -0.08938748     -0.31087606
O      -0.46917042     -0.36936967     -1.78002071
O      -1.33076611      1.12089399      0.20005181
C      -1.17357204      2.35922216     -0.46163915
O       1.06917186      0.30108544      0.24144425
C       2.17902694     -0.48970163      0.07646335
C       3.39615038     -0.17982885      0.53251745
Cl      3.70190414      1.28261760      1.39438472
Cl      4.72120059     -1.25288656      0.26505696
H      -2.12413745     -2.32764281     -0.62179798
H      -2.88593384     -1.13067473      0.46956538
H      -2.28837352     -2.67643570      1.11388848
H      -0.13940074      2.70476917     -0.38100770
H      -1.82971395      3.09502800      0.00992768
H      -1.45198465      2.26067615     -1.51425751
H       1.96269776     -1.39976400     -0.46939328
