14
NC(=O)c1cnccn1
N       2.45477108     -0.78087956     -0.05756900
C       1.68168153      0.20272944     -0.61351891
O       2.14426268      1.03276651     -1.38482556
C       0.24763495      0.19103517     -0.21578568
C      -0.61961064      1.14616190     -0.72404931
N      -1.93611146      1.17659219     -0.39093932
C      -2.33755680      0.21149091      0.46891000
C      -1.46886933     -0.74376388      0.97687466
N      -0.15543488     -0.78396340      0.65220750
H       3.43740931     -0.83279488     -0.28343779
H       2.03702654     -1.45184474      0.57781379
H      -0.28463589      1.91456168     -1.41281534
H      -3.38706996      0.22591078      0.74212357
H      -1.81349712     -1.50800210      1.66501140
