38
CCOP(=S)(OCC)Oc1ccc2c(C)c(Cl)c(=O)oc2c1
C      -3.23984401      3.33436975      0.36611729
C      -2.95413295      2.47841003     -0.85067368
O      -2.02506960      1.47398916     -0.48210456
P      -1.88868137      0.15998551     -1.41786824
S      -1.37709822      0.45163461     -3.26735993
O      -3.34020353     -0.52459579     -1.18806598
C      -3.55899659     -1.82766129     -1.70275175
C      -4.76447420     -2.42516420     -1.00653876
O      -0.94513124     -0.79610291     -0.52040528
C       0.33476736     -0.53794513     -0.12489273
C       1.03836371      0.62649540     -0.41393715
C       2.35453073      0.78985909      0.04629247
C       2.98927224     -0.20367872      0.80556628
C       4.36906786     -0.09038623      1.31998601
C       5.13350367      1.16722770      0.99318130
C       4.86314806     -1.11428882      2.04358055
Cl      6.47114161     -1.08908707      2.70328762
C       4.08588079     -2.34889493      2.34570001
O       4.53567402     -3.28012732      3.00586558
O       2.79811808     -2.40731917      1.83433425
C       2.25601599     -1.35565075      1.07959444
C       0.94676219     -1.53542884      0.62855511
H      -3.68645916      2.73076501      1.16471381
H      -2.31318461      3.75752545      0.76806663
H      -3.92134031      4.15170111      0.11611199
H      -3.88126153      2.02837532     -1.22213479
H      -2.51595545      3.09454730     -1.64222303
H      -2.68042015     -2.45791028     -1.53024856
H      -3.74085353     -1.76139841     -2.77945956
H      -4.97475322     -3.43069376     -1.38063237
H      -4.59228285     -2.48041195      0.07422893
H      -5.64934657     -1.79736934     -1.15640158
H       0.59969230      1.43478616     -0.99284416
H       2.86334740      1.71562838     -0.21412065
H       6.15020813      1.18557781      1.39338647
H       4.62226818      2.04674801      1.40162513
H       5.22710427      1.28649946     -0.09252698
H       0.41062247     -2.45001035      0.86987937
