11
CCC(=O)O
C      -1.46322948     -0.06686200      0.05828253
C      -0.06085283     -0.57679751     -0.22228462
C       0.98521864      0.44835763      0.11865197
O       0.81174784      1.56808172      0.56700152
O       2.23013707     -0.00429747     -0.13040741
H      -1.58464062      0.18791004      1.11641043
H      -1.67959703      0.83194492     -0.52875652
H      -2.20486981     -0.82976542     -0.19756437
H       0.03044726     -0.82594198     -1.28456664
H       0.12621295     -1.47545352      0.37460302
H       2.80942600      0.74282361      0.12863008
