26
CCCC1CCCCN1
C      -3.79415711     -0.01268666     -0.36013633
C      -2.43701810     -0.25006970      0.28444206
C      -1.29761722     -0.02713877     -0.71521600
C       0.09253273     -0.32777836     -0.12326781
C       1.16894742     -0.20488044     -1.21529829
C       2.56629887     -0.44379618     -0.64916086
C       2.81548127      0.44766532      0.56239514
C       1.69053026      0.31080860      1.58515435
N       0.38040302      0.58571173      0.99299545
H      -3.87772496      1.01376878     -0.73125328
H      -4.59377866     -0.17665819      0.36901280
H      -3.95507711     -0.69639217     -1.19976088
H      -2.39753786     -1.27553671      0.66970125
H      -2.33144439      0.42436434      1.14141805
H      -1.45982273     -0.67594822     -1.58575240
H      -1.33366792      1.00615655     -1.08494444
H       0.08502337     -1.35885426      0.25481358
H       1.13041735      0.79307520     -1.67159740
H       0.97577895     -0.92808877     -2.01655756
H       2.66580998     -1.49601830     -0.35550055
H       3.32162785     -0.25168566     -1.41904852
H       3.77309191      0.18458030      1.02544261
H       2.89306399      1.49285721      0.23723120
H       1.86006382      1.01320329      2.40862878
H       1.69554276     -0.69365950      2.02545221
H       0.36323252      1.54700056      0.65151665
