11
CCC
C      -1.26852925     -0.15815642     -0.48603886
C       0.04862366      0.56556324     -0.70898893
C       1.23183497     -0.26865189     -0.24804985
H      -1.41931476     -0.38046955      0.57521029
H      -2.10416949      0.46190515     -0.82534152
H      -1.29722944     -1.10082496     -1.04188182
H       0.03888071      1.51659968     -0.16507409
H       0.16030045      0.80016604     -1.77336595
H       2.16736406      0.27313942     -0.41876805
H       1.16007723     -0.49445888      0.82072095
H       1.28216185     -1.21481183     -0.79637293
