19
NCCCCC(=O)O
N       1.18471109      1.42590534      0.00541731
C       1.62270361      0.03772525      0.15989362
C       0.97384865     -0.88023828     -0.87775787
C      -0.54117829     -0.71949698     -1.07350752
C      -1.35729467     -0.78141248      0.21699751
C      -2.15000472      0.47660506      0.48456248
O      -3.35783025      0.47655904      0.67925145
O      -1.41650743      1.60616594      0.54311801
H       1.47688937      1.75363783     -0.92285669
H       1.73380623      2.00488401      0.65231514
H       1.37838929     -0.29801147      1.17266563
H       2.71267223     -0.01604141      0.06155302
H       1.45773044     -0.71891481     -1.84976147
H       1.18748289     -1.91949534     -0.59802953
H      -0.87186377     -1.53097906     -1.73496829
H      -0.74167331      0.20640916     -1.62642549
H      -2.08604873     -1.59702182      0.12443075
H      -0.75787877     -1.00947479      1.10292156
H      -0.44795387      1.48319480      0.35927054
