24
Cc1cccc(C(C)C)c1
C       3.04237961     -0.69406055      0.88973586
C       1.95741291     -0.03020830      0.09461983
C       2.27681466      0.80606300     -0.97947934
C       1.26578497      1.39643195     -1.73584904
C      -0.07310682      1.14795506     -1.43205095
C      -0.42002736      0.30157311     -0.36965366
C      -1.88358147      0.03850886     -0.06209205
C      -2.26076876      0.52408421      1.33974533
C      -2.23909523     -1.43946906     -0.24165968
C       0.60945075     -0.28639232      0.38375801
H       3.28661656     -1.66612544      0.45047728
H       2.72947146     -0.84261722      1.92860002
H       3.94699648     -0.07718605      0.90884838
H       3.31562706      1.00346558     -1.23304063
H       1.52081647      2.04969483     -2.56606382
H      -0.84515035      1.61891020     -2.03627255
H      -2.49726940      0.60592942     -0.77444257
H      -1.73537885     -0.03391679      2.12240656
H      -2.01704280      1.58495973      1.46527643
H      -3.33597458      0.40464464      1.51179516
H      -1.71149571     -2.07818749      0.47504071
H      -1.98115695     -1.78453209     -1.24914171
H      -3.31363934     -1.59683045     -0.09843404
H       0.36231669     -0.95269485      1.20787645
