8
O=C([O-])CF.[Na+]
O       1.42571711      0.95571408     -0.66952670
C       0.89499783     -0.02985210     -0.07653609
O       1.45087451     -1.05872624      0.41035060
C      -0.63627350     -0.00632613      0.00302190
F      -1.02227971      0.61037096      1.16240999
Na      0.00000000      0.00000000      0.00000000
H      -1.06631567      0.54886104     -0.83538437
H      -1.04672057     -1.02004160      0.00566468
