26
CC1=CC[C@H]2C[C@@H]1C2(C)C
C       2.33571501      0.31625300     -1.70381677
C       1.44272666     -0.05048837     -0.56705977
C       1.54780884     -1.17014079      0.17736844
C       0.56757215     -1.45138391      1.29867076
C      -0.44981305     -0.29350636      1.38767700
C       0.30479471      1.07752785      1.38058121
C       0.32666983      0.88837406     -0.18060873
C      -1.08524935      0.16995631      0.00340407
C      -2.28685058      1.12850175      0.12369074
C      -1.47335743     -0.92698184     -0.99682386
H       2.84070526      1.26561302     -1.49961507
H       1.75293661      0.42408145     -2.62404702
H       3.10401187     -0.44386601     -1.87838891
H       2.32293298     -1.90529686     -0.01714265
H       0.04998908     -2.39802563      1.11165516
H       1.11244064     -1.54630815      2.24428934
H      -1.16089486     -0.42773176      2.20912359
H       1.27434432      1.10618785      1.89074958
H      -0.26488539      1.93798631      1.74558359
H       0.31773877      1.81519972     -0.76225776
H      -2.52482965      1.56742351     -0.85178000
H      -3.17285995      0.58914545      0.47702704
H      -2.11983755      1.95778410      0.81505356
H      -2.36494864     -1.46260075     -0.65174965
H      -0.69611698     -1.67727193     -1.15570130
H      -1.70074333     -0.49043200     -1.97588260
