12
Clc1cc(Cl)cc(Cl)c1
Cl      2.87301478     -1.18636089     -0.06898814
C       1.28300514     -0.52979465     -0.03080529
C       1.10908279      0.85000725      0.05715836
C      -0.18192157      1.37367121      0.08755211
Cl     -0.40737381      3.07604240      0.19604738
C      -1.29232619      0.53364349      0.03103089
C      -1.10108359     -0.84387671     -0.05674289
Cl     -2.46564034     -1.88968107     -0.12706946
C       0.18324315     -1.38365102     -0.08818426
H       1.97092312      1.51052668      0.10157338
H      -2.29656016      0.94832436      0.05514256
H       0.32563669     -2.45885105     -0.15671464
