8
C1CN1
C       0.74808714     -0.27496774     -0.01087874
C      -0.75143263     -0.25207765      0.08465238
N      -0.02932786      0.78208909     -0.64774650
H       1.20719167     -0.99362944     -0.67816238
H       1.33095801      0.00341211      0.85755749
H      -1.31311945     -0.95515662     -0.51759923
H      -1.21067917      0.04220953      1.01948019
H       0.01832230      1.64812071     -0.10730321
