36
NCCNCCNCCNCCN
N       6.32869645      1.28271283      0.61221427
C       5.71159237      0.04035943      0.14718288
C       4.26042062      0.26461673     -0.32057219
N       3.68337610     -0.98295751     -0.83885413
C       2.32786487     -0.79050486     -1.37388567
C       1.25636077     -0.50999205     -0.29953588
N      -0.08438220     -0.47016400     -0.90305843
C      -1.10292801     -0.19511089      0.11895295
C      -2.50999328     -0.14730041     -0.50941809
N      -3.52896323      0.13109566      0.51022909
C      -4.87133543      0.17885065     -0.09779464
C      -5.94624321      0.44666247      0.97519884
N      -5.88010380     -0.54480844      2.05080243
H       7.28588975      1.08935192      0.90465565
H       6.39475678      1.94236995     -0.16178929
H       6.31391691     -0.36712653     -0.67306101
H       5.72804330     -0.69020414      0.96386592
H       4.24760583      1.03379870     -1.10273509
H       3.67502712      0.63324782      0.52889905
H       4.27707049     -1.32878150     -1.59301153
H       2.05720883     -1.71670927     -1.89649331
H       2.32696318      0.00318929     -2.13167885
H       1.46162278      0.45162372      0.18344933
H       1.29763879     -1.29352527      0.46708410
H      -0.28104429     -1.37809700     -1.32628689
H      -0.89229494      0.76864762      0.59888891
H      -1.07730347     -0.97194121      0.89340597
H      -2.72179825     -1.11150443     -0.98787069
H      -2.53453318      0.62826446     -1.28517050
H      -3.33018640      1.03252320      0.94447577
H      -5.08999868     -0.77648638     -0.59040292
H      -4.91935986      0.97106916     -0.85403358
H      -5.79045635      1.44532541      1.39987795
H      -6.94246180      0.42824560      0.52222783
H      -4.88829659     -0.74504743      2.21249241
H      -6.24237198     -0.14202818      2.91174934
