33
CC(C)(c1cc(Br)c(O)c(Br)c1)c1cc(Br)c(O)c(Br)c1
C       0.00932036     -1.71448336      1.70952061
C      -0.00805993     -1.18212055      0.25237209
C      -0.03761743     -2.43863436     -0.65718339
C       1.26640744     -0.31864167      0.08550513
C       2.34925732     -0.70442806     -0.72435913
C       3.48489502      0.10783817     -0.85062976
Br      4.89580821     -0.49255338     -1.96975363
C       3.56452911      1.32145046     -0.16905856
O       4.68031444      2.10410713     -0.30461388
C       2.50229522      1.71882928      0.64224888
Br      2.56371297      3.36093664      1.58858104
C       1.36902221      0.91077069      0.77087882
C      -1.27102735     -0.35738731     -0.09753008
C      -2.35548251     -0.21020567      0.78540178
C      -3.48041211      0.54766994      0.43106853
Br     -4.89437518      0.69425897      1.68916127
C      -3.54753046      1.17271877     -0.81333696
O      -4.65293475      1.91102521     -1.14332116
C      -2.48355690      1.03458130     -1.70403656
Br     -2.52813841      1.86624187     -3.40761786
C      -1.36094628      0.27890291     -1.35402173
H      -0.06087755     -0.90833296      2.44930926
H      -0.82039653     -2.40664248      1.89683737
H       0.93747685     -2.26153600      1.91817655
H       0.03979312     -2.18564826     -1.72118208
H      -0.97329602     -2.99714660     -0.52741038
H       0.78270084     -3.12731392     -0.42180896
H       2.32963579     -1.64362909     -1.27111332
H       4.55413100      2.90248957      0.23917675
H       0.55081949      1.24434629      1.40783530
H      -2.34547238     -0.68260674      1.76426151
H      -4.51889311      2.26659314     -2.04034417
H      -0.54110250      0.18855008     -2.06545233
