27
Nc1ccc(S(=O)(=O)Nc2ncccn2)cc1
N      -4.26907739     -0.04954078      1.52385096
C      -3.23643568     -0.05791719      0.57874548
C      -2.85392806      1.12937767     -0.05459274
C      -1.75037595      1.15889785     -0.91128105
C      -0.99211507      0.00055646     -1.09485026
S       0.38964068      0.03376634     -2.20940345
O       0.90255579     -1.30917203     -2.38164726
O      -0.03918356      0.79802975     -3.36541696
N       1.50940942      0.97982612     -1.43172534
C       2.29571587      0.37698527     -0.45907404
N       1.71922932     -0.40964833      0.45036107
C       2.51831693     -0.82533748      1.44921374
C       3.83439255     -0.44589233      1.57437631
C       4.29881395      0.41101410      0.60348470
N       3.54273722      0.85747925     -0.41685580
C      -1.33238087     -1.18053539     -0.43413517
C      -2.43821255     -1.19578174      0.42020169
H      -4.97166528      0.66396065      1.35633897
H      -4.68109579     -0.96287239      1.68765367
H      -3.41827255      2.04347334      0.11084735
H      -1.48403639      2.08243446     -1.41920312
H       2.03213910      1.58809923     -2.04999310
H       2.05146411     -1.48798966      2.17241642
H       4.45875054     -0.79026117      2.38695814
H       5.32067187      0.77937015      0.62145577
H      -0.73380686     -2.07961496     -0.55947942
H      -2.67325133     -2.10870719      0.96109648
