50
CCOC(=O)N1CCC(=C2c3ccc(Cl)cc3CCc3cccnc32)CC1
C       6.63028980      1.57810443     -1.85938109
C       6.15909374      0.66678002     -0.74281097
O       4.73560884      0.78375435     -0.64301500
C       4.17302322      0.01208318      0.32723431
O       4.81938008     -0.72729545      1.06130675
N       2.79472276      0.15814950      0.39241886
C       2.05461508     -0.79453782      1.22005842
C       0.68964772     -0.26253866      1.67069087
C      -0.10219188      0.24097417      0.47199568
C      -1.31879227     -0.21973982      0.07410614
C      -2.01018927     -1.25209827      0.88113714
C      -1.58717375     -2.58810057      0.87094113
C      -2.26287458     -3.54193868      1.63313721
C      -3.36760106     -3.16256160      2.39323628
Cl     -4.20147038     -4.33995406      3.33160842
C      -3.81217790     -1.83970904      2.39184088
C      -3.14036428     -0.87563620      1.62799325
C      -3.63111622      0.55016631      1.56247524
C      -4.21124294      0.89889909      0.18519181
C      -3.32294445      0.85966263     -1.04281420
C      -3.88044933      1.33659371     -2.24276862
C      -3.15655582      1.29363934     -3.42829686
C      -1.88395292      0.76341158     -3.39033811
N      -1.30437973      0.29429537     -2.26753454
C      -2.01617124      0.35531076     -1.10762109
C       0.68876210      1.34642687     -0.21295708
C       2.04484337      0.81487452     -0.68554440
H       6.15870669      1.30090159     -2.80801183
H       6.34772381      2.61610444     -1.65483916
H       7.71630885      1.52377568     -1.97542464
H       6.43077444     -0.36953825     -0.97294512
H       6.62319936      0.97053192      0.20220350
H       1.93054607     -1.70966636      0.62714612
H       2.64837169     -1.05827221      2.10255670
H       0.83582026      0.57604474      2.36438564
H       0.17617238     -1.03753569      2.24443725
H      -0.73254988     -2.88681937      0.26784142
H      -1.92625384     -4.57502044      1.62561804
H      -4.68606453     -1.56495403      2.97718493
H      -2.82040132      1.23815539      1.83354213
H      -4.41219970      0.70259242      2.31829172
H      -5.06152104      0.23030628     -0.00907891
H      -4.61871481      1.91619079      0.26113062
H      -4.89293542      1.73521646     -2.25618695
H      -3.58032162      1.65554704     -4.35806087
H      -1.27669093      0.69624816     -4.28812881
H       0.85024029      2.15214133      0.51609861
H       0.16862977      1.81563104     -1.05020613
H       2.62637248      1.64633853     -1.09696201
H       1.91444834      0.07706488     -1.48692144
