38
O=C(O)CCCCCCCCCCC(=O)O
O       6.52331869      0.39112512     -1.00437983
C       5.67222145      0.96149308     -0.34314840
O       5.87807954      1.23116941      0.95922169
C       4.33837616      1.44382211     -0.83899022
C       3.16995543      0.67978814     -0.22089767
C       3.09642413     -0.76948194     -0.71283735
C       1.97772166     -1.58064332     -0.05135407
C       0.57273021     -1.09275843     -0.41530012
C      -0.50033193     -2.00901263      0.17941105
C      -1.92395728     -1.63346290     -0.24216127
C      -2.38233144     -0.27802332      0.30051363
C      -3.84659417     -0.00747206     -0.05108285
C      -4.30654834      1.34647452      0.48587373
C      -5.74612255      1.62050240      0.14445711
O      -6.51284501      0.90640817     -0.47762116
O      -6.15453718      2.81437405      0.61851321
H       6.77229411      0.87140849      1.13745583
H       4.32181658      1.35854924     -1.93152344
H       4.26114508      2.51220612     -0.60618220
H       2.24606432      1.20491852     -0.48728404
H       3.24455354      0.69337326      0.87292431
H       2.96625536     -0.78452947     -1.80177523
H       4.04665108     -1.27456005     -0.50187877
H       2.10538395     -1.56334536      1.03787854
H       2.08558620     -2.62648254     -0.36500827
H       0.43114464     -0.07393078     -0.04191649
H       0.46566831     -1.06139004     -1.50605978
H      -0.31057084     -3.03994788     -0.14445928
H      -0.42699777     -2.00360447      1.27376476
H      -2.60413515     -2.41320031      0.12272294
H      -1.99682051     -1.63844885     -1.33653671
H      -2.25659295     -0.25618079      1.38969436
H      -1.76136381      0.52309516     -0.11545855
H      -4.47984985     -0.80233199      0.36260397
H      -3.97659343     -0.03635915     -1.14023942
H      -4.20354060      1.36800913      1.57638411
H      -3.69445699      2.14536151      0.05295778
H      -7.09120064      2.87308784      0.33543266
