18
O=c1oc(=O)c2cc3c(=O)oc(=O)c3cc12
O      -2.39075581     -1.64651003      2.31378869
C      -2.00810940     -0.59902274      1.83753265
O      -2.48060820      0.65229935      2.08177350
C      -1.81800181      1.60513527      1.37341473
O      -2.00699269      2.80294079      1.37689140
C      -0.82053705      0.90290150      0.59576633
C       0.12065107      1.39886060     -0.29455069
C       0.93643791      0.44088812     -0.87872145
C       2.00810914      0.59902270     -1.83753294
O       2.39075673      1.64651018     -2.31378760
O       2.48060674     -0.65229957     -2.08177517
C       1.81800148     -1.60513532     -1.37341511
O       2.00699367     -2.80294064     -1.37689029
C       0.82053669     -0.90290156     -0.59576675
C      -0.12065099     -1.39886059      0.29455078
C      -0.93643820     -0.44088817      0.87872112
H       0.21191468      2.45699041     -0.51735504
H      -0.21191395     -2.45699030      0.51735583
