19
C=COCCCC
C       3.17956227     -0.86990498      1.34535719
C       1.93410102     -1.26416582      1.63286401
O       0.76893895     -0.98710733      0.97784404
C       0.85003384     -0.15963577     -0.18332525
C      -0.55157703      0.02363737     -0.76353055
C      -1.48225417      0.77064958      0.19468050
C      -2.86031048      0.97392245     -0.41536617
H       3.42093732     -0.24043518      0.49809429
H       4.00495744     -1.18342109      1.97692098
H       1.71865665     -1.89606745      2.48854841
H       1.27359722      0.81809452      0.07639045
H       1.48304257     -0.64304499     -0.93708370
H      -0.47770930      0.57305906     -1.70922050
H      -0.98371581     -0.96034003     -0.98298423
H      -1.58687670      0.21359016      1.13264849
H      -1.05212162      1.74768592      0.44373946
H      -3.50911273      1.51010852      0.28426924
H      -3.33164362      0.01374440     -0.64823706
H      -2.79850582      1.55963068     -1.33810896
