138
C[C@@H]1OC(=O)C[C@H](O)C[C@H](O)CC[C@@H](O)[C@H](O)C[C@H](O)C[C@]2(O)C[C@H](O)[C@@H](C(=O)O)[C@H](C[C@@H](O[C@@H]3O[C@H](C)[C@@H](O)[C@H](N)[C@@H]3O)/C=C/C=C/C=C/C=C/C=C/C=C/C=C/[C@H](C)[C@@H](O)[C@H]1C)O2
C       9.33648405      0.51643033     -1.01010534
C       7.89390407      0.99125595     -1.20613537
O       7.19054291     -0.03153059     -1.96956672
C       6.56539348     -1.12187732     -1.46743492
O       5.89649597     -1.83088643     -2.22247007
C       6.65564490     -1.41886075      0.01657774
C       7.12522887     -2.84621771      0.32205246
O       8.38167408     -3.05733174     -0.33553467
C       6.15495670     -3.98075211     -0.03344477
C       4.93082894     -4.03042830      0.88781509
O       5.38219848     -4.33797081      2.20882598
C       3.89544962     -5.06810925      0.41897817
C       2.85297958     -5.38493976      1.49519249
C       1.58310684     -6.06493355      0.95374247
O       1.02352582     -6.86837241      1.99990258
C       0.47481141     -5.10213594      0.45671210
O       0.89544216     -4.41570769     -0.71947885
C       0.05742244     -4.07504749      1.51675734
C      -1.29660025     -3.40293356      1.23362641
O      -1.29270866     -2.87975860     -0.09975334
C      -1.50096739     -2.27197003      2.24677038
C      -2.88354166     -1.61311457      2.25158034
O      -2.78876482     -0.42706859      3.02990307
C      -3.96464628     -2.51799690      2.83410261
C      -5.21546505     -1.67959232      3.03468929
O      -6.33950866     -2.50123685      3.39599646
C      -5.62252461     -0.88198937      1.78647553
C      -6.35892715      0.33766632      2.32924213
O      -5.99455166      1.50051854      2.23587013
O      -7.50495049     -0.00613215      2.97744976
C      -4.47210575     -0.48080602      0.81451127
C      -4.89878162     -0.62577788     -0.67383433
C      -5.50098439      0.62656995     -1.31826883
O      -6.60728775      0.99878410     -0.49442898
C      -7.84461184      1.18423558     -1.18177850
O      -7.79670337      2.36331744     -1.98089386
C      -9.01932664      2.61408181     -2.68527515
C      -8.81407651      3.87776709     -3.51689369
C     -10.20377714      2.77153450     -1.72275791
O     -11.44099575      2.88440787     -2.43695105
C     -10.29986767      1.55024248     -0.78346177
N     -11.40625342      1.76800985      0.18368617
C      -8.95012460      1.30151220     -0.10279979
O      -8.69412134      2.37238883      0.82002659
C      -4.62445637      1.84093783     -1.52636579
C      -3.30043707      2.06570529     -1.55239083
C      -2.20108727      1.14189500     -1.40746098
C      -0.89155801      1.44238995     -1.29408416
C      -0.25160422      2.73813336     -1.32827951
C       1.07414736      2.94472447     -1.29352605
C       2.11911784      1.94203604     -1.22287227
C       2.53905397      1.28982020     -0.12461429
C       2.07407699      1.47593864      1.23371105
C       2.12998142      2.60798761      1.95566601
C       2.67163270      3.87672525      1.51863990
C       3.95223526      4.15382857      1.21069321
C       5.08256028      3.26825285      1.34693259
C       6.26495703      3.35132536      0.71881882
C       6.73311237      4.22045546     -0.43948668
C       5.63548587      4.57725785     -1.45863988
C       7.96319509      3.63197167     -1.21702186
O       9.07064744      3.51483826     -0.32507531
C       7.73180405      2.31392232     -2.00807583
C       8.62124391      2.31574886     -3.26780103
O      -3.28912348     -1.30888208      0.92311207
H       9.81948932      0.27785634     -1.96590635
H       9.94785867      1.24884585     -0.47968541
H       9.36772299     -0.41417958     -0.43228707
H       7.39357570      1.10346857     -0.24488209
H       5.68287688     -1.20183491      0.46508906
H       7.36796370     -0.75431134      0.50486372
H       7.34338788     -2.89174780      1.39781541
H       8.74233461     -3.90478835     -0.01929228
H       6.69997039     -4.92852672      0.06179569
H       5.84280778     -3.92020825     -1.08017158
H       4.44474021     -3.05368384      0.93398811
H       5.66881222     -5.26628643      2.22051352
H       3.42656277     -4.70231275     -0.50208650
H       4.40823755     -6.00474484      0.16718800
H       2.59637460     -4.47635124      2.05181033
H       3.32041334     -6.03813289      2.24241539
H       1.85250280     -6.74276632      0.13580452
H       1.64328925     -7.60403891      2.15641433
H      -0.39849804     -5.70813077      0.18769031
H       0.18145562     -3.77032562     -0.91233093
H       0.01427522     -4.53633916      2.51137283
H       0.81992752     -3.28298718      1.55153339
H      -2.09699499     -4.14703372      1.30207289
H      -1.99642189     -2.19595344     -0.11891609
H      -0.75378529     -1.48983869      2.03198927
H      -1.27602660     -2.62513123      3.26240968
H      -2.12248345      0.13628809      2.59671872
H      -4.19913518     -3.34501584      2.15625585
H      -3.66374144     -2.95679089      3.78904566
H      -5.05704594     -1.00998626      3.89379272
H      -6.07203980     -3.08332201      4.13488273
H      -6.37568843     -1.45287381      1.22392404
H      -7.61203239     -0.98639911      3.05468212
H      -4.13374075      0.54266937      1.00081135
H      -4.07727001     -1.00161859     -1.28780791
H      -5.64706537     -1.42810786     -0.74356563
H      -5.86432197      0.33421552     -2.31332305
H      -8.04449393      0.31307067     -1.81873522
H      -9.20298102      1.78324665     -3.37894611
H      -9.70972398      4.13657437     -4.09072065
H      -7.98024784      3.73296455     -4.21460973
H      -8.54497952      4.72690566     -2.87679996
H     -10.08133931      3.69057555     -1.12695163
H     -12.12750396      2.75021976     -1.75028995
H     -10.57723433      0.67228791     -1.38139356
H     -11.47441722      0.94482525      0.78999858
H     -11.06931014      2.49895993      0.82899918
H      -8.97797719      0.38305548      0.49092289
H      -7.71958515      2.51074862      0.82258201
H      -5.22891387      2.73016135     -1.73434776
H      -3.00392553      3.09631638     -1.77350443
H      -2.42067794      0.08057572     -1.37536191
H      -0.21632403      0.59246400     -1.18326736
H      -0.89504220      3.61601091     -1.39471919
H       1.43524678      3.97101912     -1.38053694
H       2.61163334      1.72885658     -2.17061560
H       3.31284261      0.53064052     -0.24519922
H       1.66257405      0.57989221      1.69744685
H       1.69627430      2.61617072      2.95247631
H       1.94013003      4.67859878      1.43942823
H       4.16619132      5.15864850      0.86798076
H       4.97916049      2.49488087      2.10908266
H       7.03574797      2.66985556      1.09169837
H       7.08559782      5.15750411      0.01750576
H       4.96761389      5.36098505     -1.08492439
H       5.01824065      3.70652077     -1.72046399
H       6.06356594      4.97368841     -2.38910281
H       8.24878116      4.41385668     -1.93149774
H       9.87846403      3.54483236     -0.86639556
H       6.70848991      2.32542994     -2.40191293
H       8.48207619      1.40111057     -3.85578851
H       9.68524952      2.40479996     -3.01092597
H       8.36960870      3.16391424     -3.91511627
