14
CCCCCl
C      -1.94219553      0.24156210      0.31446526
C      -0.54711401     -0.26533306      0.64369888
C       0.48446945      0.23643059     -0.36667324
C       1.87776536     -0.27676999     -0.02790645
Cl      3.06322714      0.31700505     -1.21354152
H      -1.97541137      1.33565823      0.32794571
H      -2.66343376     -0.12923858      1.04947136
H      -2.26018104     -0.09999875     -0.67576409
H      -0.27274112      0.06627313      1.65194082
H      -0.55594632     -1.36151507      0.65373264
H       0.48393565      1.33350402     -0.37510888
H       0.20069334     -0.09448399     -1.37345449
H       1.91090112     -1.37030174     -0.04419200
H       2.19603109      0.06720806      0.96081082
