28
Nc1ccn([C@H]2CC[C@@H](CO)O2)c(=O)n1
N       4.75581583      0.25776423     -0.10448046
C       3.43070032     -0.05491113      0.02187009
C       2.45461406      0.50290251     -0.93244517
C       1.18579380      0.14714430     -0.74093351
N       0.82890597     -0.69122701      0.29115124
C      -0.55388457     -1.08545484      0.53597387
C      -1.19748838     -0.31377149      1.68945547
C      -2.00373038      0.74827358      0.98239820
C      -2.47515969     -0.00471793     -0.24289257
C      -2.85767122      0.89759957     -1.41055812
O      -3.26852588      0.09900117     -2.51872323
O      -1.37021098     -0.84696742     -0.63269343
C       1.78614946     -1.18817760      1.18501606
O       1.45689532     -1.91193038      2.12350956
N       3.10219159     -0.83586742      1.00157459
H       4.97952410      1.18450809     -0.44409540
H       5.28574697     -0.00103299      0.72292838
H       2.78124252      1.14264378     -1.73861793
H       0.40514978      0.50202511     -1.40444064
H      -0.57567356     -2.16266782      0.73980503
H      -1.87974307     -0.97844575      2.23405374
H      -0.48811641      0.09957405      2.41212543
H      -1.35053154      1.58432157      0.70572143
H      -2.82766245      1.13907019      1.58566333
H      -3.30790637     -0.67599809      0.00150197
H      -2.00579002      1.49957790     -1.74259651
H      -3.68126385      1.56580669     -1.14313308
H      -2.60937136     -0.61904287     -2.58854376
