16
O=[N+]([O-])c1cccc([N+](=O)[O-])c1
O      -3.38141831     -0.94182551      0.45168235
N      -2.23859293     -1.40876741      0.35193986
O      -1.96252093     -2.61479267      0.40152226
C      -1.12951092     -0.46391264      0.16093488
C      -1.39691092      0.91249142      0.09886103
C      -0.34719833      1.81563466     -0.08251282
C       0.96419667      1.35034031     -0.20170212
C       1.22349623     -0.02756640     -0.13859331
N       2.60560032     -0.51045063     -0.26471368
O       3.49768018      0.33384701     -0.42404943
O       2.79389202     -1.73275290     -0.20393157
C       0.18102387     -0.94664031      0.04302469
H      -2.41282633      1.29502645      0.18969241
H      -0.55151338      2.88405968     -0.13106715
H       1.76923440      2.07055552     -0.34267312
H       0.38536833     -2.01524659      0.09158572
