27
CCCCCCCCO
C      -4.46846487     -0.03315793     -0.03447780
C      -3.04350564      0.48915353      0.05591709
C      -2.03689934     -0.65194462      0.20109655
C      -0.60396455     -0.12206229      0.29228909
C       0.40167374     -1.26685360      0.43376871
C       1.84168540     -0.78982475      0.64287453
C       2.42086570     -0.05725108     -0.56628124
C       3.88707544      0.29674226     -0.35549750
O       4.36597590      0.97605071     -1.50801989
H      -4.73794427     -0.59566773      0.86513264
H      -5.17145037      0.79933136     -0.13784052
H      -4.59099494     -0.69086811     -0.90092995
H      -2.96305329      1.16806393      0.91283319
H      -2.81712859      1.07351619     -0.84351303
H      -2.12368514     -1.33010440     -0.65661529
H      -2.27119026     -1.23565311      1.09967980
H      -0.51650709      0.55281055      1.15224817
H      -0.38197773      0.46451972     -0.60608732
H       0.11946526     -1.88644369      1.29413509
H       0.35335680     -1.91420546     -0.45031778
H       2.46334420     -1.66728026      0.86055674
H       1.88993393     -0.14226285      1.52679257
H       1.86081839      0.86304988     -0.76827729
H       2.32282176     -0.67462531     -1.46781418
H       4.48977595     -0.60504434     -0.20789737
H       4.00927504      0.95343095      0.51175635
H       5.30069858      1.18917596     -1.34551139
