27
O=C(O)CCCCc1ccccc1
O       3.29363082      2.72740852     -0.45845888
C       3.42446992      1.52983547     -0.26837773
O       3.91804678      1.07143705      0.89638849
C       3.12872126      0.43947245     -1.26059044
C       2.19136634     -0.63679785     -0.71755799
C       0.78012909     -0.10508809     -0.45125289
C      -0.14453551     -1.21830654      0.04803217
C      -1.53791444     -0.70700025      0.31460797
C      -2.50106468     -0.70475024     -0.70307765
C      -3.78540919     -0.21522624     -0.46007688
C      -4.11712146      0.28020913      0.79954004
C      -3.16455237      0.28852758      1.81671790
C      -1.87971019     -0.20058048      1.57560526
H       4.08141661      1.88452765      1.41913844
H       4.08448481     -0.00620790     -1.55846150
H       2.69405333      0.89843701     -2.15602948
H       2.13544748     -1.44963888     -1.45199001
H       2.60105764     -1.06893069      0.20317871
H       0.37325663      0.33183579     -1.37201064
H       0.81902846      0.70177116      0.29091948
H      -0.19003296     -2.03134594     -0.68766490
H       0.26111665     -1.66417363      0.96511244
H      -2.25544387     -1.08369453     -1.69240400
H      -4.52667150     -0.21866942     -1.25476859
H      -5.11690481      0.66210738      0.98766919
H      -3.42144906      0.67806114      2.79817691
H      -1.14541580     -0.18321965      2.37763459
