19
Cc1cccc(C)c1O
C       2.58377526     -0.68864783      0.08818364
C       1.26669841      0.02800926     -0.00100715
C       1.23216158      1.41742787     -0.16918792
C       0.01323012      2.08735813     -0.25254004
C      -1.18334056      1.37546519     -0.16865271
C      -1.18000145     -0.01719926     -0.00013786
C      -2.49004160     -0.74569479      0.08554497
C       0.05636824     -0.67704507      0.08202650
O       0.13991462     -2.03421824      0.24639725
H       2.67145650     -1.20291372      1.05069597
H       2.67478900     -1.41760349     -0.72356043
H       3.42581025      0.00669436      0.00562652
H       2.15623555      1.98664514     -0.23632407
H      -0.00463093      3.16629612     -0.38312247
H      -2.12258535      1.92026461     -0.23633809
H      -2.57544235     -1.25975881      1.04829534
H      -2.57210280     -1.47458182     -0.72712531
H      -3.34053987     -0.06083815      0.00107867
H      -0.75175463     -2.40965950      0.29014721
