27
Oc1c(Cl)cc(Cl)c(Cl)c1Cc1c(O)c(Cl)cc(Cl)c1Cl
O       1.87888089      0.50900843      2.58055250
C       2.03082138     -0.35043213      1.52082975
C       2.86083321     -1.47040922      1.65026061
Cl      3.67457703     -1.78933075      3.13743371
C       3.04093859     -2.33466145      0.58031411
C       2.40072629     -2.06814856     -0.63049950
Cl      2.69684805     -3.17935218     -1.92661824
C       1.56294890     -0.94199548     -0.77234231
Cl      0.84088877     -0.61773193     -2.31782246
C       1.34089710     -0.07571154      0.32267534
C       0.43847177      1.14967942      0.24746506
C      -1.01759426      0.92342013     -0.14020680
C      -1.54987476      1.61148012     -1.24939179
O      -0.73896498      2.47985062     -1.93721087
C      -2.87626649      1.42994908     -1.65896747
Cl     -3.49061491      2.27168205     -3.03360788
C      -3.71295231      0.57264400     -0.95958145
C      -3.22524523     -0.09374002      0.16516089
Cl     -4.33883734     -1.12596476      0.99991056
C      -1.89074122      0.08252833      0.58734653
Cl     -1.35030792     -0.71796090      2.03032053
H       2.37676951      0.14495460      3.33748853
H       3.68452256     -3.20470012      0.68153433
H       0.41437423      1.69233314      1.20041964
H       0.93528343      1.84647734     -0.43870456
H      -1.24404319      2.82503659     -2.69821330
H      -4.74233908      0.43109519     -1.27854546
