45
CN(C)CCCN1c2ccccc2CCc2ccccc21
C       3.71016384     -1.68861923      0.15744463
N       3.68749094     -0.22865722      0.28447886
C       5.05882204      0.28863041      0.24806683
C       2.88396841      0.40257340     -0.77653953
C       1.38141917      0.10648539     -0.69645054
C       0.76987368      0.54378150      0.64131613
N      -0.70298348      0.31663930      0.66510049
C      -1.42868822      1.49796296      0.37239900
C      -1.32801904      2.59765280      1.24799102
C      -1.99142468      3.79966252      0.99623757
C      -2.77590432      3.92657187     -0.14217145
C      -2.90204024      2.84866595     -1.01557757
C      -2.23975887      1.63306020     -0.76151052
C      -2.41631946      0.48123718     -1.70665257
C      -3.12315000     -0.66506081     -0.99979710
C      -2.26447108     -1.50208546     -0.07775806
C      -2.66051577     -2.85835958      0.04083181
C      -1.96576257     -3.75990078      0.83880753
C      -0.86800320     -3.31815696      1.55238896
C      -0.47805931     -1.97889322      1.46221226
C      -1.14798526     -1.03158827      0.64793393
H       4.09617579     -2.01310677     -0.81558438
H       2.71186835     -2.11473233      0.29621351
H       4.33739418     -2.13174148      0.93960744
H       5.06547933      1.37396738      0.39871950
H       5.65465525     -0.14129336      1.06106727
H       5.55911676      0.06783604     -0.70188111
H       3.00258629      1.49255286     -0.71359994
H       3.25409170      0.10691362     -1.76713970
H       0.88683953      0.64739842     -1.51292083
H       1.19384477     -0.95604974     -0.88515534
H       1.25639643      0.04129799      1.48263430
H       1.01411821      1.60413342      0.79028375
H      -0.73325043      2.50798665      2.15436721
H      -1.89681304      4.62830344      1.69212118
H      -3.29701892      4.85784165     -0.34594921
H      -3.52968000      2.95732437     -1.89718757
H      -3.02995913      0.79736181     -2.55974315
H      -1.44987007      0.17488217     -2.12357440
H      -3.51411376     -1.31990760     -1.79062227
H      -3.99148946     -0.30407010     -0.43291061
H      -3.53080246     -3.21884994     -0.50555725
H      -2.28970615     -4.79399486      0.90895946
H      -0.32224561     -3.99982675      2.19841464
H       0.35372985     -1.67582882      2.09154641
