62
CCCCOC(=O)CC(CC(=O)OCCCC)(OC(C)=O)C(=O)OCCCC
C      -6.80120232     -2.75396678     -0.24856979
C      -6.58206321     -1.54307076      0.64364874
C      -5.37705409     -0.69559123      0.23748972
C      -4.04235885     -1.41609714      0.39736301
O      -3.00075322     -0.47878930      0.09776043
C      -1.74177402     -0.93755787      0.35504830
O      -1.48107386     -2.05426217      0.77964719
C      -0.73818214      0.13634061      0.02264652
C       0.60087540      0.01267326      0.77951270
C       1.31135922     -1.35680815      0.75304093
C       1.40447550     -1.99429092     -0.61092012
O       0.76853875     -1.65567694     -1.59819141
O       2.29492272     -3.02638652     -0.56917278
C       2.51848969     -3.70846635     -1.81153985
C       3.56064443     -2.97945813     -2.65708902
C       4.91725886     -2.89731176     -1.95624581
C       5.94728397     -2.18939828     -2.82429600
O       0.25908253      0.33553187      2.16321181
C       1.25612444      0.61589384      3.04221596
C       0.67931576      0.92722658      4.39038647
O       2.44934197      0.61554018      2.78384842
C       1.53573255      1.06980020      0.14516866
O       2.47981261      0.82197558     -0.59393230
O       1.13430774      2.32967611      0.49372914
C       1.93970489      3.38152581     -0.05240060
C       1.25381276      4.71711864      0.21231451
C      -0.09140288      4.82295563     -0.50788447
C      -0.74808411      6.16992872     -0.26475583
H      -5.97319373     -3.46470106     -0.17245000
H      -6.90419304     -2.45498400     -1.29705349
H      -7.71750131     -3.27681298      0.04759341
H      -6.47347756     -1.87162053      1.68405731
H      -7.47907470     -0.91334708      0.60328070
H      -5.36243936      0.21438158      0.85063891
H      -5.48630106     -0.35171447     -0.79852849
H      -3.96958196     -2.25856104     -0.29855142
H      -3.93355579     -1.77732562      1.42736912
H      -0.60849197      0.16215819     -1.06268249
H      -1.20190778      1.09222385      0.30141869
H       2.33813562     -1.24296381      1.12047605
H       0.82830924     -2.06314901      1.43621684
H       2.87090849     -4.71518857     -1.56538341
H       1.57856608     -3.83066122     -2.36348422
H       3.66700316     -3.50108954     -3.61471411
H       3.21605118     -1.96253504     -2.87345413
H       5.27627699     -3.90690001     -1.72007794
H       4.82060673     -2.35759290     -1.00714811
H       6.09788933     -2.72015095     -3.76955121
H       5.63270196     -1.16515956     -3.05329377
H       6.90833194     -2.14084403     -2.30524756
H       0.02261778      1.79867170      4.32225878
H       0.13183803      0.06032459      4.76841561
H       1.49047537      1.15462939      5.08501818
H       2.07539448      3.23963429     -1.12976888
H       2.91682726      3.36926381      0.44114737
H       1.91340040      5.52885564     -0.11460840
H       1.08821627      4.83270148      1.29019190
H      -0.77032366      4.03186771     -0.16812090
H       0.05467004      4.68455931     -1.58472326
H      -1.70910548      6.21899500     -0.78266489
H      -0.11856379      6.98557784     -0.63523425
H      -0.92764426      6.33240234      0.80068302
