27
CCCCOCCCC
C       4.10857685      1.23726347     -0.59079062
C       2.66234622      0.85560662     -0.31670947
C       2.53468335     -0.62496954      0.04933633
C       1.09336127     -1.01814567      0.36194060
O       0.29971332     -0.86079718     -0.81223801
C      -1.07217793     -1.19989489     -0.61614199
C      -1.84618703     -0.02817839     -0.01639340
C      -3.33713600     -0.33899866      0.09186274
C      -4.10788253      0.82824754      0.68762239
H       4.51596636      0.65712508     -1.42493413
H       4.17799354      2.29857474     -0.84910854
H       4.73472430      1.06040849      0.28954262
H       2.27624524      1.47484487      0.50131829
H       2.06045758      1.07958128     -1.20479046
H       2.90202452     -1.23075630     -0.78799959
H       3.16274606     -0.84538410      0.92027476
H       1.06578897     -2.06750431      0.67665677
H       0.70409727     -0.39701046      1.17508607
H      -1.16331338     -2.10313031     -0.00138161
H      -1.48160738     -1.43611912     -1.60440864
H      -1.44753684      0.21845317      0.97412691
H      -1.68758312      0.86410423     -0.63477299
H      -3.48765454     -1.22641612      0.71757353
H      -3.74317358     -0.56840127     -0.90018199
H      -5.17269206      0.58429879      0.75530592
H      -3.74843176      1.06268416      1.69469081
H      -4.00334872      1.72451389      0.06784264
