30
CC(C)c1ccccc1C(C)C
C       2.00649820     -1.20752812     -1.28789494
C       1.37187596     -1.06090719      0.09701425
C       2.39173496     -1.40983551      1.19056376
C       0.74528324      0.32449865      0.24849382
C       1.56178145      1.40688399      0.64041110
C       1.04334954      2.68854454      0.81767445
C      -0.30604938      2.92007526      0.60410031
C      -1.13040145      1.87461003      0.19143544
C      -0.62726893      0.57323148     -0.02093060
C      -1.57995738     -0.52195791     -0.49827450
C      -2.58467426     -0.05772342     -1.56258077
C      -2.31526929     -1.14141255      0.69244334
H       1.27335711     -1.02683246     -2.08163340
H       2.40602122     -2.21794031     -1.42613784
H       2.82968850     -0.49818805     -1.42983888
H       0.59114221     -1.82108754      0.20104614
H       2.67891568     -2.46493914      1.11764775
H       1.96936745     -1.24709703      2.18820865
H       3.31088836     -0.82086262      1.10784613
H       2.62574576      1.26509756      0.81319284
H       1.69484227      3.50094212      1.12737110
H      -0.72014788      3.91352250      0.75218459
H      -2.18418452      2.09384359      0.03828841
H      -1.00255984     -1.30852963     -0.99441827
H      -3.12366805     -0.91809700     -1.97522613
H      -2.07477398      0.44546370     -2.39142275
H      -3.33636991      0.62710519     -1.15694906
H      -2.94845750     -0.40546255      1.20078099
H      -2.95617401     -1.96714554      0.36522912
H      -1.61053552     -1.53827207      1.43137494
