20
CC(C)CCOC=O
C      -2.28762509     -1.18573270      0.09526760
C      -1.09831548     -0.35937424     -0.39985200
C      -1.53533724      1.08764924     -0.63148297
C       0.06441091     -0.46737294      0.59996634
C       1.34760828      0.21162125      0.12722125
O       2.37323603     -0.06030616      1.09383459
C       3.57919691      0.47795267      0.78680583
O       3.85035232      1.14421437     -0.19878818
H      -2.65990403     -0.81151211      1.05508758
H      -2.00458012     -2.23546414      0.22697308
H      -3.11220221     -1.15180892     -0.62473305
H      -0.77544564     -0.77843770     -1.36129537
H      -2.40488926      1.12877949     -1.29645697
H      -1.80733749      1.57589426      0.31042122
H      -0.74032495      1.67334006     -1.10275477
H      -0.22722024     -0.04799676      1.57187711
H       0.28339314     -1.52582284      0.79427551
H       1.64937768     -0.18988215     -0.84713668
H       1.20697255      1.29527748      0.05404603
H       4.29863393      0.21898187      1.57901510
