17
NCc1ccccc1
N      -2.56847448     -0.15478453     -0.82761863
C      -1.88267835      0.43114890      0.31827245
C      -0.39645181      0.19520270      0.24434586
C       0.43741096      1.10786369     -0.41773234
C       1.81100237      0.87606286     -0.50720332
C       2.36335949     -0.27215370      0.05744283
C       1.54338843     -1.19098405      0.70991735
C       0.16955318     -0.96106662      0.80049726
H      -2.34837623     -1.14947489     -0.86233110
H      -2.16877183      0.23780705     -1.67918600
H      -2.28561244      0.00507929      1.24426863
H      -2.09124539      1.50636754      0.36028338
H       0.01918298      2.00623396     -0.86649895
H       2.45013659      1.59112736     -1.01864055
H       3.43293509     -0.45186906     -0.01259687
H       1.97382246     -2.08791658      1.14765741
H      -0.45918102     -1.68864394      1.30912258
