30
CCCCCC1CCCC(=O)O1
C       4.98140905      0.20073392      0.37228168
C       3.60760224      0.78861560      0.09204331
C       2.49239362     -0.16272960      0.52508456
C       1.11173974      0.43266053      0.24163692
C      -0.00521148     -0.52234432      0.67745171
C      -1.40162989      0.06840509      0.43968099
C      -2.47979478     -0.85805297      0.98599106
C      -3.83431438     -0.27497955      0.63722405
C      -3.95802886     -0.14578435     -0.86639435
C      -2.77583127      0.51271539     -1.52979103
O      -2.89086307      1.10728792     -2.59737620
O      -1.56016216      0.30578466     -0.97368869
H       5.11384655      0.00514272      1.44117845
H       5.76368665      0.89733824      0.05495698
H       5.12368906     -0.73969612     -0.16964498
H       3.51980520      1.00231818     -0.97955662
H       3.50990820      1.74301617      0.62239698
H       2.58764890     -0.37653430      1.59665264
H       2.59685033     -1.11705423     -0.00539394
H       1.00708968      1.38554043      0.77448092
H       1.02286050      0.64906270     -0.82952496
H       0.09627259     -1.45820195      0.11331661
H       0.11599275     -0.76216734      1.74078564
H      -1.46316799      1.04413069      0.93850234
H      -2.38197831     -0.96674916      2.07173199
H      -2.38917448     -1.85667280      0.54076101
H      -4.63501452     -0.91354469      1.02601161
H      -3.94742820      0.70951202      1.10761137
H      -4.85470322      0.43887412     -1.10023425
H      -4.07349244     -1.13662702     -1.32085133
