58
COc1cc(C(C)=O)ccc1OCCCN1CCC(c2noc3cc(F)ccc23)CC1
C      -5.01131565      2.64676150      1.08810743
O      -4.26472963      1.54324237      0.59807395
C      -4.95244917      0.42067239      0.20405388
C      -6.33332612      0.24341692      0.36503639
C      -6.94795835     -0.94078363     -0.06241411
C      -8.41663449     -1.17579869      0.08226497
C      -9.27251545     -0.10458585      0.70161578
O      -8.90822227     -2.23035898     -0.30898267
C      -6.17117091     -1.94893821     -0.64555446
C      -4.79425934     -1.77977904     -0.80920292
C      -4.17858122     -0.59643153     -0.39418590
O      -2.83488250     -0.34365527     -0.51106968
C      -2.07571142     -1.19118168     -1.36889350
C      -0.67948879     -0.59641421     -1.54988749
C       0.09581180     -0.54196554     -0.22531015
N       1.43115126      0.06502538     -0.36876587
C       2.06002573      0.29033900      0.93130408
C       3.27451568      1.21326259      0.77958837
C       4.08292590      0.93217310     -0.50065908
C       5.55130069      1.19382898     -0.32793833
N       6.14117613      2.14766973     -1.06511743
O       7.47634591      2.13874671     -0.70705559
C       7.68712307      1.18797549      0.24143252
C       8.90562702      0.88595708      0.84085250
C       8.87006298     -0.12344871      1.79747802
F      10.00584011     -0.46541372      2.41994996
C       7.69466857     -0.80078103      2.12125070
C       6.48695221     -0.47722945      1.48851357
C       6.49039975      0.55267701      0.52735926
C       3.80361762     -0.48134174     -1.01883310
C       2.30657914     -0.68674285     -1.28208935
H      -5.73179153      3.00110238      0.34356644
H      -4.31041350      3.46329303      1.28603983
H      -5.50766342      2.39812704      2.03130527
H      -6.93030637      1.02152256      0.82519407
H     -10.30907119     -0.45316239      0.74123002
H      -9.24048139      0.80220705      0.09254783
H      -8.94611385      0.09963502      1.72349763
H      -6.63409781     -2.87793526     -0.97593478
H      -4.23190205     -2.59381386     -1.25615559
H      -1.99377744     -2.19240545     -0.93090251
H      -2.55294428     -1.25855151     -2.35474551
H      -0.14373669     -1.20463607     -2.28609369
H      -0.76766050      0.41981316     -1.95270993
H       0.17865067     -1.55129413      0.19977372
H      -0.48771779      0.05684282      0.48547661
H       1.36198085      0.76899678      1.62779164
H       2.35811130     -0.66041674      1.38988530
H       3.89076728      1.12082023      1.68154538
H       2.94019273      2.25963394      0.75468046
H       3.71188821      1.62792925     -1.26869700
H       9.81879783      1.40314221      0.58594568
H       7.72604877     -1.58660831      2.87285284
H       5.57479315     -1.00929461      1.74407052
H       4.14378409     -1.22584799     -0.28808345
H       4.36557348     -0.67582194     -1.94042965
H       2.10685515     -1.76605279     -1.22879608
H       2.08735600     -0.36412256     -2.30769611
