35
O=P(OCC(Br)CBr)(OCC(Br)CBr)OCC(Br)CBr
O       0.50362663     -0.70246713      2.78449261
P       0.36429381     -0.15683495      1.40119423
O      -0.62112254     -0.99928555      0.44617625
C      -1.86496154     -1.39337229      1.00902774
C      -2.83937306     -1.84745283     -0.07840789
Br     -3.46032425     -0.24231748     -1.04951091
C      -2.26269173     -2.80815642     -1.10491101
Br     -1.87214119     -4.53739394     -0.29455992
O      -0.21780145      1.34113552      1.31032201
C      -0.20732804      1.99664712      0.05039970
C      -1.22558755      3.13400693      0.05570430
Br     -1.29258921      3.88059722     -1.76112860
C      -0.85391292      4.21961472      1.05448519
Br     -2.35892622      5.42383209      1.38029100
O       1.72660148     -0.09387572      0.54777434
C       2.52417219     -1.26969225      0.53898174
C       3.55174945     -1.22412666     -0.59232427
Br      4.94131191      0.09487032     -0.11678142
C       2.99305999     -0.82963265     -1.94982251
Br      1.81836712     -2.22090187     -2.64762681
H      -2.28679521     -0.56271075      1.58727651
H      -1.67176970     -2.21349569      1.70836172
H      -3.74774614     -2.25123936      0.38173633
H      -1.33375942     -2.45121761     -1.55713723
H      -2.97567983     -3.02151378     -1.90779632
H      -0.44106692      1.27707558     -0.74194881
H       0.80424113      2.37695574     -0.13352882
H      -2.22639073      2.73762190      0.25819421
H      -0.01981385      4.84471031      0.72216360
H      -0.61812410      3.80624280      2.03932981
H       3.01403642     -1.36500686      1.51457718
H       1.87372918     -2.14235070      0.41368729
H       4.09054655     -2.17653523     -0.64308589
H       3.78335633     -0.71883062     -2.69923631
H       2.40881341      0.09510008     -1.92636903
