32
CCCCCCc1ccc(O)cc1O
C       4.79357339      0.49240641     -1.78828224
C       4.11918188     -0.13449009     -0.57836493
C       2.62136531      0.17301675     -0.54974457
C       1.94872473     -0.46387369      0.66829068
C       0.46966569     -0.09239388      0.80849605
C      -0.40508210     -0.65190423     -0.31700070
C      -1.86929851     -0.36456710     -0.08004691
C      -2.67654914     -1.32646141      0.54795512
C      -4.02909207     -1.07423164      0.78965596
C      -4.57541208      0.14599428      0.40625530
O      -5.89116940      0.43382527      0.62350665
C      -3.79516445      1.11653593     -0.21091921
C      -2.44639089      0.85707548     -0.44837022
O      -1.66247762      1.80278761     -1.04847091
H       4.68184399      1.58133481     -1.77927009
H       4.36304350      0.11021038     -2.71935979
H       5.86323750      0.26062355     -1.78843744
H       4.27605721     -1.21921021     -0.60077824
H       4.59503865      0.24373286      0.33388487
H       2.47006775      1.25900010     -0.52781650
H       2.16205107     -0.20074426     -1.47158598
H       2.05159165     -1.55481640      0.62126276
H       2.47006867     -0.13679093      1.57657340
H       0.11129700     -0.47893743      1.77149264
H       0.36986096      0.99902247      0.85940107
H      -0.25636735     -1.73618085     -0.39975923
H      -0.10996528     -0.23812496     -1.28798709
H      -2.25120169     -2.27991981      0.85360473
H      -4.63177861     -1.83519135      1.27495863
H      -6.30677379     -0.32985741      1.05677834
H      -4.25012815      2.05919305     -0.49517801
H      -2.20981780      2.58293667     -1.23590049
