12
Cc1ncc[nH]1
C       1.87780259     -0.16515011      0.09505500
C       0.39817743     -0.21503750      0.05665808
N      -0.36325239     -1.27221426      0.24605729
C      -1.65360630     -0.83005852      0.11409448
C      -1.68017502      0.51559311     -0.15963465
N      -0.36787111      0.89639248     -0.19382347
H       2.27708234      0.16995930     -0.86715254
H       2.21999226      0.52301781      0.87409141
H       2.29124371     -1.15544937      0.30940559
H      -2.49269014     -1.50472078      0.22338503
H      -2.49008319      1.21047610     -0.32709039
H      -0.01662019      1.82719175     -0.37104583
