28
COc1ccc2c(c1)[nH]c1c(C)nccc12
C       5.10472045      0.02475229      0.40724362
O       3.94730597      0.75126550      0.80015350
C       2.73454535      0.24254239      0.41544998
C       2.53749632     -0.92193170     -0.32547023
C       1.24346505     -1.34871573     -0.66319170
C       0.12828537     -0.59275114     -0.24951784
C       0.35261508      0.56579489      0.48916321
C       1.63676754      1.00505735      0.83417396
N      -0.87716661      1.11311632      0.76579093
C      -1.89031293      0.34946906      0.23203246
C      -3.27795769      0.52794964      0.26880889
C      -3.96369197      1.67027355      0.94803368
N      -4.05218745     -0.40051305     -0.35536899
C      -3.47271122     -1.44787286     -0.98079554
C      -2.10787282     -1.67174659     -1.04727248
C      -1.28693299     -0.72976766     -0.41208846
H       5.98005010      0.55872909      0.78950976
H       5.19207910     -0.01916582     -0.68338850
H       5.10923238     -0.97839465      0.84623632
H       3.36978219     -1.53104174     -0.66237110
H       1.10581459     -2.25805930     -1.24090130
H       1.78764670      1.91212451      1.41117258
H      -1.01617982      1.96351007      1.29155113
H      -3.72260602      1.67321510      2.01537235
H      -5.05026947      1.59394360      0.84133598
H      -3.64097846      2.61862746      0.50778154
H      -4.16758252     -2.13828768     -1.45139359
H      -1.70335622     -2.53212290     -1.56491482
