11
C=CCN
C      -1.51435424     -0.94933688      0.18730230
C      -0.83369828      0.13722515     -0.20118712
C       0.60087899      0.13792021     -0.61493147
N       1.34774111      1.04793800      0.23847547
H      -2.55935046     -0.87394652      0.47202644
H      -1.05036464     -1.92930370      0.23289903
H      -1.34591144      1.09694427     -0.23290031
H       0.67448318      0.47270666     -1.65482898
H       1.03786804     -0.86498894     -0.55740450
H       2.32851231      1.02667568     -0.03390656
H       1.31419542      0.69816608      1.19521082
