29
CN(C)S(=O)(=O)N(SC(F)(Cl)Cl)c1ccccc1
C       1.95380760     -0.04281416     -1.65015062
N       1.81892865     -0.58019440     -0.27890670
C       3.01853789     -1.34282569      0.12736471
S       1.32093511      0.56209668      0.88539191
O       1.28646419     -0.09543562      2.17389868
O       2.14670882      1.73646301      0.69433178
N      -0.27726706      0.89363226      0.35697282
S      -0.87108710      2.37512450      1.05705065
C      -0.20075951      3.61468242     -0.10670182
F       0.51036759      3.01688784     -1.10292809
Cl      0.82422465      4.79490465      0.73635083
Cl     -1.56584698      4.47965018     -0.87749577
C      -1.21621324     -0.19614099      0.36353120
C      -1.59136602     -0.87501599      1.52758149
C      -2.55006142     -1.88921923      1.47116866
C      -3.15189192     -2.21575710      0.25666887
C      -2.80264099     -1.52447535     -0.90219159
C      -1.84371741     -0.51137353     -0.84677793
H       1.05690219      0.50312993     -1.95312200
H       2.82415835      0.61509872     -1.73320196
H       2.07548353     -0.87099201     -2.35609489
H       3.27191273     -2.07954347     -0.64209338
H       2.82591036     -1.89832594      1.04968609
H       3.87743646     -0.67965704      0.26827611
H      -1.14877616     -0.62314040      2.48778622
H      -2.82947638     -2.42001380      2.37793936
H      -3.89894063     -3.00472513      0.21573811
H      -3.27936551     -1.77134516     -1.84730167
H      -1.58436782      0.02932482     -1.75277109
