45
COc1ccc(C(=O)CC(=O)c2ccc(C(C)(C)C)cc2)cc1
C       7.00294399     -1.52630948     -1.17958390
O       6.33696757     -1.42398935      0.07294203
C       5.26969942     -0.57301786      0.13850233
C       4.65307324     -0.50476297      1.38972926
C       3.54865416      0.32744919      1.60491929
C       3.04344392      1.10260568      0.55805596
C       1.86830256      2.01461960      0.71326247
O       1.53749129      2.74013925     -0.22625800
C       1.09452455      2.04428420      2.00531883
C       0.28562768      0.80086480      2.26857806
O       0.60242636      0.03651890      3.18104998
C      -0.90581829      0.48406298      1.42351825
C      -1.53693441     -0.75072158      1.60562501
C      -2.65840527     -1.10354794      0.84360133
C      -3.18465187     -0.23332330     -0.12291336
C      -4.41426089     -0.58537177     -0.97878782
C      -4.03662656     -0.54650171     -2.47547257
C      -4.99407525     -1.98862427     -0.69153609
C      -5.53913116      0.43776353     -0.71201448
C      -2.53949507      1.00730702     -0.28891118
C      -1.41827450      1.36514301      0.47155178
C       3.66480686      1.03432481     -0.69704396
C       4.77089804      0.20179896     -0.90661755
H       6.33252471     -1.91680694     -1.95217409
H       7.43357510     -0.56441883     -1.47747788
H       7.82667880     -2.23782626     -1.06309905
H       5.03630760     -1.10883601      2.20978128
H       3.11268087      0.34002960      2.59958416
H       1.78685961      2.21477629      2.83791854
H       0.43183826      2.91722898      2.01642611
H      -1.16104784     -1.45604143      2.34556845
H      -3.10165027     -2.07772420      1.03350593
H      -3.21525310     -1.23992640     -2.69302862
H      -3.71914121      0.45131347     -2.79752609
H      -4.88841685     -0.82941482     -3.10529677
H      -4.25783741     -2.77684237     -0.88684244
H      -5.32763592     -2.08290492      0.34834627
H      -5.86332475     -2.19430587     -1.32756466
H      -6.44034128      0.19336874     -1.28705865
H      -5.81458353      0.45360000      0.34976360
H      -5.24751619      1.45620771     -0.99073069
H      -2.90414677      1.72432663     -1.02284669
H      -0.97600471      2.34051445      0.28896230
H       3.29069855      1.63183773     -1.52731083
H       5.21454996      0.18465715     -1.89641585
