32
NS(=O)(=O)c1cc(C(=O)O)c(NCc2ccco2)cc1Cl
N       3.08702816      3.02286072     -1.07323358
S       3.70483436      1.77805254     -0.13349618
O       4.30542317      2.37474630      1.03409745
O       4.47502408      0.97568150     -1.05764106
C       2.26657466      0.87461759      0.34149371
C       2.16662852     -0.46760135     -0.04876509
C       1.04401646     -1.23451809      0.30886369
C       0.94979862     -2.64991500     -0.14614108
O      -0.05552321     -3.33922114     -0.13454905
O       2.12220145     -3.13738104     -0.58881996
C      -0.01064728     -0.65515884      1.05285904
N      -1.11495956     -1.41884381      1.48585450
C      -2.44867409     -0.80311397      1.45960533
C      -2.93348965     -0.38225855      0.11322758
C      -3.01436926     -1.02331122     -1.10673862
C      -3.56053664     -0.08504502     -2.01472995
C      -3.77789987      1.06513571     -1.29333028
O      -3.40072804      0.89494117     -0.00019868
C       0.13518211      0.68462938      1.45662270
C       1.25422146      1.45310544      1.10196180
Cl      1.27516924      3.08984734      1.65494005
H       3.46839536      2.96870175     -2.01819648
H       3.24847713      3.91989696     -0.61211643
H       2.96467929     -0.91946332     -0.63643502
H       1.92755068     -4.06665289     -0.83313424
H      -1.14402812     -2.32231037      0.99685012
H      -3.15454359     -1.54924691      1.84564543
H      -2.50084851      0.03096781      2.16848868
H      -2.70787460     -2.04048563     -1.31097836
H      -3.76879259     -0.22747318     -3.06571949
H      -4.17323049      2.04077228     -1.53993344
H      -0.62905923      1.14804386      2.07644608
