26
ClC1=C(Cl)[C@]2(Cl)[C@H]3[C@H]([C@@H]4C=C[C@H]3C4)[C@@]1(Cl)C2(Cl)Cl
Cl     -1.77500987      3.02139940     -0.57907044
C      -1.61681902      1.39922733     -0.11635170
C      -1.58573275      0.89645714      1.12573900
Cl     -1.69561700      1.73770706      2.59228981
C      -1.37728820     -0.59604747      1.00823378
Cl     -1.81915112     -1.55310403      2.41206613
C       0.06194093     -0.90785522      0.48684684
C       0.02513679     -0.31286558     -0.98312206
C       1.28457594      0.59137695     -1.00813309
C       2.46163233     -0.36889566     -0.93719358
C       2.49287656     -0.87377590      0.31015747
C       1.33684920     -0.25352279      1.07925275
C       1.42981937      1.12765827      0.42063523
C      -1.42952813      0.24863301     -1.07857847
Cl     -1.94794252      0.52912870     -2.73220819
C      -2.23575688     -0.84363035     -0.28549672
Cl     -4.00450118     -0.50106986     -0.10256322
Cl     -2.13414444     -2.51022021     -0.96262270
H       0.20485029     -1.99746088      0.44505424
H       0.15073697     -1.12243498     -1.71676724
H       1.34611784      1.33356565     -1.80392935
H       3.12016625     -0.62434121     -1.75478036
H       3.18142721     -1.61425675      0.69089501
H       1.44547185     -0.27234704      2.16358217
H       0.68063090      1.84736234      0.73070338
H       2.39925868      1.61931210      0.59536131
