42
CN1CCN(C(c2ccccc2)c2ccccc2)CC1
C       4.95902061      0.07054440     -1.02843295
N       3.71451309     -0.01979178     -0.26938351
C       2.89529824     -1.15037679     -0.74050292
C       1.54042849     -1.23477861     -0.00045787
N       0.73625414      0.00783125     -0.13444168
C      -0.53111375     -0.08636735      0.65375459
C      -1.41198217     -1.28082216      0.25834392
C      -1.70021051     -1.57499184     -1.08581739
C      -2.51699482     -2.65595267     -1.42199454
C      -3.06272447     -3.45554527     -0.42045999
C      -2.79402584     -3.17486807      0.91747127
C      -1.97687830     -2.09416268      1.25590297
C      -1.37270762      1.19792946      0.61772422
C      -1.64564263      1.87041849     -0.58628993
C      -2.42698357      3.02713696     -0.59803974
C      -2.95213163      3.52599496      0.59174886
C      -2.69827311      2.86880895      1.79370725
C      -1.91657136      1.71168285      1.80769024
C       1.57798558      1.13568080      0.34322901
C       2.93290347      1.22288217     -0.39640354
H       5.54897356     -0.84469233     -0.90736825
H       5.57652609      0.89498984     -0.65515047
H       4.78455675      0.22850961     -2.09890122
H       2.70878185     -1.07237412     -1.82037363
H       3.43726314     -2.08853015     -0.56982240
H       1.00343685     -2.08982404     -0.42428045
H       1.72600978     -1.45944564      1.05894429
H      -0.22972594     -0.24292710      1.70067665
H      -1.27727121     -0.96208084     -1.87845249
H      -2.72770030     -2.87102738     -2.46606171
H      -3.70063628     -4.29519113     -0.68276946
H      -3.22460136     -3.79530771      1.69897733
H      -1.78602944     -1.88772013      2.30638514
H      -1.23839500      1.49494971     -1.52223263
H      -2.62624805      3.53621082     -1.53712041
H      -3.56250761      4.42492820      0.58150767
H      -3.11289247      3.25487579      2.72114233
H      -1.73695065      1.20965823      2.75545741
H       1.76567765      1.04442741      1.42197412
H       1.06969655      2.09210484      0.18204539
H       3.50294890      2.05666933      0.03120157
H       2.74892338      1.46054371     -1.45312704
