18
O=[N+]([O-])c1cc([N+](=O)[O-])cc([N+](=O)[O-])c1
O      -0.71348439      3.53706625      0.08814719
N      -1.39237830      2.50626227      0.00294478
O      -2.62633437      2.47456274     -0.08108367
C      -0.67807714      1.22052976      0.00143406
C       0.72152920      1.20680206      0.09484497
C       1.39294742     -0.02486515      0.09253541
N       2.86030838     -0.05105871      0.19001508
O       3.44712465      1.03511465      0.27117769
O       3.41373462     -1.15758631      0.18460130
C       0.68439332     -1.23189880     -0.00144754
C      -0.71487031     -1.19566458     -0.09396974
N      -1.46793006     -2.45520359     -0.19295996
O      -2.70024938     -2.37947958     -0.27276108
O      -0.82079103     -3.50967789     -0.19008139
C      -1.40592256      0.02509680     -0.09339765
H       1.27981938      2.14057681      0.16823300
H       1.21394930     -2.18509249     -0.00256719
H      -2.49376874      0.04451576     -0.16566527
