118
CC[C@H]1OC(=O)[C@H](C)[C@@H](O[C@H]2C[C@@](C)(OC)[C@@H](O)[C@H](C)O2)[C@H](C)[C@@H](O[C@@H]2O[C@H](C)C[C@H](N(C)C)[C@H]2O)[C@](C)(O)C[C@@H](C)C(=O)[C@H](C)[C@@H](O)[C@]1(C)O
C      -3.58902968      3.97576023     -3.84607558
C      -4.69546863      3.51132565     -2.91074837
C      -4.24376854      2.66353873     -1.70570682
O      -3.07792808      1.90059555     -2.09610302
C      -3.02632143      0.61218439     -1.65456978
O      -3.82917220      0.11114316     -0.87367037
C      -1.83952225     -0.11188725     -2.26157036
C      -2.36600582     -1.04841110     -3.34852962
C      -1.03343914     -0.78863329     -1.10641049
O      -1.02695749     -2.20440327     -1.31700259
C      -1.42489543     -2.98733698     -0.19131021
C      -2.29713124     -4.10773332     -0.74975489
C      -2.71110792     -5.13372897      0.31769580
C      -3.80496695     -4.53554826      1.21989221
O      -3.29184417     -6.22447191     -0.43535813
C      -3.74140605     -7.35033592      0.30576066
C      -1.44852553     -5.57145007      1.11704292
O      -0.66002966     -6.47542278      0.31267807
C      -0.51111673     -4.40875883      1.51950915
C      -0.92211919     -3.65393549      2.77864418
O      -0.26114974     -3.52090796      0.42554173
C       0.41879642     -0.22541222     -1.05391417
C       1.31106059     -0.96406139     -2.06913497
C       1.08896128     -0.19023634      0.36233980
O       2.35009188      0.48175523      0.18656489
C       3.50233662     -0.33379171      0.46574905
O       3.57087758     -0.64373263      1.84496094
C       4.69993880     -1.45487050      2.15520366
C       4.61516980     -1.80660084      3.63333628
C       5.98746124     -0.69255958      1.85933187
C       6.06974451     -0.22609112      0.38652675
N       7.30244546      0.61252364      0.20051198
C       8.53478514     -0.16345025      0.40291955
C       7.36906318      1.23796214     -1.12865289
C       4.73342827      0.48700917      0.01867879
O       4.62293438      0.70704543     -1.40140864
C       0.26770412      0.54129348      1.49776823
C       1.11849709      0.81844069      2.74762368
O      -0.74173445     -0.40223409      1.93965852
C      -0.51683199      1.81811885      1.08149394
C       0.16426459      3.19291414      1.04556061
C       1.28745864      3.35994434      0.03200878
C      -0.90068074      4.28743531      0.86014946
O      -1.12205386      5.07685089      1.78531873
C      -1.62025941      4.44250436     -0.49063400
C      -0.96781849      5.64375803     -1.19230801
C      -3.14790295      4.65645828     -0.26946868
O      -3.66791214      5.66368859     -1.14554778
C      -4.04951558      3.38300623     -0.31965608
C      -5.45039345      3.76297421      0.21774422
O      -3.51734162      2.44098766      0.63273875
H      -3.08362099      3.12969301     -4.31258054
H      -2.83955286      4.56851589     -3.32970976
H      -4.01210371      4.59927337     -4.64348809
H      -5.31426899      4.35728415     -2.59516477
H      -5.35959437      2.88580921     -3.51845143
H      -5.06365881      1.94727901     -1.55969003
H      -1.21398771      0.64767681     -2.75514740
H      -3.03738258     -1.81250060     -2.93759012
H      -2.93169554     -0.48568711     -4.09794020
H      -1.53874098     -1.55425229     -3.86397569
H      -1.54520301     -0.55086664     -0.17448343
H      -2.00012546     -2.38909759      0.52105199
H      -3.18341361     -3.68723107     -1.24354413
H      -1.75812953     -4.61935349     -1.56207570
H      -3.99730524     -5.17573854      2.08588580
H      -3.57321394     -3.53645971      1.59285383
H      -4.75554978     -4.45979412      0.67661448
H      -4.59843212     -7.08732443      0.93185403
H      -4.07188819     -8.11092025     -0.40844063
H      -2.94496136     -7.77925371      0.91660194
H      -1.73162093     -6.14294944      2.00583295
H      -0.38106878     -5.98446053     -0.48278895
H       0.46976244     -4.84989118      1.74201647
H      -1.81659959     -3.04521022      2.64461850
H      -0.12858042     -2.95874133      3.06800876
H      -1.08657541     -4.34210212      3.61405724
H       0.39945512      0.81756410     -1.39116031
H       2.26675386     -0.45642166     -2.21673170
H       1.52225698     -1.98886979     -1.74584272
H       0.83113348     -1.01723293     -3.05257062
H       1.25353499     -1.22834682      0.67829637
H       3.43132660     -1.25417094     -0.13270775
H       4.65757777     -2.38242514      1.56926244
H       4.63103101     -0.89913477      4.25010050
H       5.44426161     -2.45131799      3.93921029
H       3.67059347     -2.31761614      3.85075394
H       6.83539033     -1.33398969      2.11722907
H       6.04333211      0.19625129      2.50841151
H       6.15982322     -1.10567160     -0.26436902
H       9.42548906      0.44171064      0.17613521
H       8.65061275     -0.46467960      1.45138155
H       8.56579392     -1.06004842     -0.22789991
H       7.24578527      0.50099311     -1.93454094
H       8.33504399      1.74294701     -1.27755435
H       6.61687465      2.03141566     -1.22846797
H       4.70815707      1.47277479      0.49905714
H       3.75682089      1.14842191     -1.51715713
H       1.48425397     -0.11694164      3.18419707
H       0.51600610      1.28670747      3.53479093
H       1.97275883      1.46997043      2.54226453
H      -1.15108663     -0.04600510      2.74743069
H      -1.34361106      1.91519924      1.80083438
H      -1.02792700      1.64404170      0.13167396
H       0.59667795      3.38400271      2.03563239
H       2.18418084      2.82929726      0.35484393
H       1.00249590      3.00810491     -0.96258512
H       1.57993539      4.41375654     -0.05364690
H      -1.44367077      3.55510784     -1.10622200
H      -1.06334356      6.55715409     -0.59280239
H       0.09873748      5.47629362     -1.35913111
H      -1.40848940      5.82626618     -2.17142808
H      -3.27514693      5.06621941      0.74277026
H      -3.76944558      6.47385725     -0.61314297
H      -5.37696645      4.16392450      1.23815958
H      -6.09315669      2.87932792      0.29630700
H      -5.95513942      4.50213740     -0.41042700
H      -3.99126873      1.59251581      0.50990239
