55
Cc1cc(O)c(C(C)(C)C)cc1Sc1cc(C(C)(C)C)c(O)cc1C
C      -0.21928585     -0.48388854     -3.89768215
C      -1.13874110     -0.41942223     -2.71031664
C      -2.05284853     -1.46160328     -2.50104715
C      -2.92796570     -1.44625088     -1.40829557
O      -3.79911189     -2.49147718     -1.26347329
C      -2.93435463     -0.39521561     -0.47697947
C      -3.91452544     -0.34482604      0.71570703
C      -3.68827908     -1.55446541      1.65123571
C      -5.37681399     -0.33960831      0.20527521
C      -3.75878181      0.92599438      1.59637711
C      -1.99159798      0.63099021     -0.69392811
C      -1.09692399      0.62883672     -1.78171952
S       0.03356303      2.01288555     -1.95667730
C       1.13330697      1.73883980     -0.56472239
C       2.01613526      0.64149490     -0.62108489
C       2.93741644      0.34821274      0.40639908
C       3.89909269     -0.85777058      0.30325553
C       3.61008254     -1.87171509      1.43378654
C       3.77386678     -1.64457760     -1.02974653
C       5.37026865     -0.38699669      0.38321731
C       2.92266088      1.21432641      1.51381986
O       3.77061869      0.99228010      2.56392799
C       2.06011255      2.31635683      1.58388799
C       1.16748595      2.60142626      0.54095843
C       0.26643844      3.79781148      0.66208426
H      -0.26399939      0.44308137     -4.48237961
H      -0.49410417     -1.30610111     -4.57627159
H       0.80980178     -0.66339108     -3.56134253
H      -2.08198156     -2.28927534     -3.20469416
H      -3.65226100     -3.13394289     -1.97634625
H      -4.30326241     -1.47405904      2.55462902
H      -2.63932359     -1.61712218      1.96725388
H      -3.94600219     -2.51072501      1.17983221
H      -5.65713225     -1.27742793     -0.28866998
H      -5.54080333      0.47409358     -0.51438318
H      -6.08127747     -0.20001130      1.03397923
H      -4.48700386      0.93298922      2.41697659
H      -2.76281234      0.98230198      2.05564070
H      -3.92579759      1.84202100      1.01517514
H      -1.93604359      1.47187418     -0.01015063
H       1.96719257      0.01167881     -1.50477711
H       3.78680897     -1.45794074      2.43136278
H       2.56747376     -2.21304724      1.40055290
H       4.25207395     -2.75735561      1.34090032
H       3.98873677     -1.00658428     -1.89644577
H       4.48374642     -2.48160912     -1.06501306
H       2.77143515     -2.07280221     -1.15384333
H       6.06114277     -1.22384826      0.22598129
H       5.62920730      0.04793896      1.35370128
H       5.58352853      0.36783161     -0.38238680
H       3.61194877      1.65592589      3.25430206
H       2.08314642      2.96897045      2.45425144
H      -0.76736737      3.48009563      0.82764774
H       0.32170253      4.42010275     -0.23668946
H       0.55940753      4.43469995      1.50640659
