14
N#Cc1c(Cl)c(Cl)c(Cl)c(C#N)c1Cl
N       2.99863510     -2.45915897     -0.14490621
C       2.14971462     -1.67073730     -0.09208833
C       1.09534230     -0.69607551     -0.02707196
C       1.39850528      0.66334282      0.16392518
Cl      3.06096521      1.15802413      0.32120916
C       0.36514654      1.61754747      0.22751381
Cl      0.74486100      3.29962861      0.46410464
C      -0.97596714      1.20844131      0.09934787
Cl     -2.26227510      2.38005992      0.17643566
C      -1.28619076     -0.14935614     -0.09184130
C      -2.65502834     -0.56773100     -0.22276053
N      -3.75871777     -0.90789948     -0.32868261
C      -0.24752054     -1.09648090     -0.15422410
Cl     -0.62747040     -2.77960497     -0.39096126
