15
Cc1ccccc1
C       2.21393758      0.10047906      0.14969051
C       0.72077558      0.03614271      0.02411349
C       0.07773594     -1.19214100     -0.17308258
C      -1.31416655     -1.25587273     -0.25845116
C      -2.07502554     -0.09462537     -0.13706176
C      -1.44494450      1.13035582      0.07402105
C      -0.05311247      1.19537366      0.15956875
H       2.69054095     -0.68103364     -0.45139820
H       2.59497753      1.06264553     -0.20844739
H       2.50733960     -0.02921556      1.19592423
H       0.65812190     -2.10754300     -0.26228897
H      -1.80462575     -2.21260594     -0.41686400
H      -3.15849009     -0.14486078     -0.20269078
H      -2.03745723      2.03573100      0.17505507
H       0.42439305      2.15717025      0.33191176
