49
CCCCN1CCCCC1C(=O)Nc1c(C)cccc1C
C       4.55965227      3.37529301      1.09927097
C       3.82153907      2.16604922      1.65487851
C       2.87812408      1.55779920      0.61439294
C       2.18672606      0.30041903      1.16100028
N       1.11170133     -0.20985068      0.28811772
C       1.56912522     -0.61454410     -1.05550048
C       2.41503431     -1.88551802     -1.07588503
C       1.66594529     -3.04832245     -0.43727982
C       1.15657371     -2.67343321      0.95014317
C       0.38903112     -1.34095631      0.95940502
C      -1.03816408     -1.46939123      0.35631136
O      -1.55917372     -2.55245885      0.11872236
N      -1.59764182     -0.21347194      0.15654842
C      -2.85841838      0.08064850     -0.40942269
C      -4.03507684     -0.64010901     -0.11187715
C      -4.12552086     -1.73999456      0.91220386
C      -5.23359634     -0.29908904     -0.76859903
C      -5.29255565      0.77432089     -1.65024498
C      -4.15252625      1.53206412     -1.88838164
C      -2.93266444      1.20240952     -1.27437190
C      -1.73297637      2.05984950     -1.58802024
H       5.21655730      3.80233004      1.86385419
H       3.85818118      4.15356157      0.78012869
H       5.17717600      3.09458641      0.23858984
H       4.55355074      1.41665861      1.97825023
H       3.25218337      2.46915670      2.54125141
H       3.46107059      1.31091265     -0.28187290
H       2.12667764      2.30219058      0.32349618
H       2.94171373     -0.46798135      1.36570069
H       1.74230886      0.56869075      2.12926257
H       0.68859518     -0.77218821     -1.69186923
H       2.11176937      0.19886088     -1.54583457
H       2.66807998     -2.14031410     -2.10981995
H       3.36372505     -1.71995422     -0.55312281
H       0.82191611     -3.33343828     -1.07626230
H       2.32202322     -3.92229147     -0.36972116
H       2.01291391     -2.60253054      1.63254511
H       0.52635079     -3.48327592      1.33298200
H       0.20056209     -1.07338285      2.01043618
H      -0.86540326      0.48664296      0.06692249
H      -5.10436140     -1.72193558      1.40590224
H      -3.39104692     -1.61234561      1.71287032
H      -4.00675479     -2.71592278      0.43715837
H      -6.14153006     -0.86468887     -0.57078343
H      -6.23007896      1.02998414     -2.13592932
H      -4.22236931      2.38377297     -2.56044345
H      -1.97222074      2.83828575     -2.32116777
H      -0.92801335      1.45205951     -2.01434847
H      -1.37871401      2.56084268     -0.68102254
