25
CCCCCCC(C)=O
C       4.16282805      0.10382526     -0.25518033
C       2.84555227     -0.04428670     -0.99972982
C       1.65760498     -0.06164105     -0.03812611
C       0.33453321     -0.21071475     -0.79100907
C      -0.85399999     -0.22829272      0.17065247
C      -2.17210882     -0.37481931     -0.58032168
C      -3.33827488     -0.45511573      0.38130893
C      -3.84711591      0.83891310      0.96014189
O      -3.83078441     -1.53706892      0.70077447
H       4.18849227      1.03814345      0.31466782
H       4.31599535     -0.72752495      0.44032864
H       4.99856675      0.11388553     -0.96182825
H       2.86524541     -0.97145308     -1.58426273
H       2.73843375      0.78448160     -1.70921784
H       1.64503033      0.86602742      0.54698070
H       1.77171392     -0.88983830      0.67190372
H       0.22018209      0.61777059     -1.50064474
H       0.34759107     -1.13839488     -1.37604071
H      -0.74260107     -1.05447718      0.88398910
H      -0.86239515      0.69550259      0.76161708
H      -2.33630714      0.46494442     -1.26449654
H      -2.17109575     -1.28671923     -1.18887039
H      -4.09018978      1.53322960      0.15197798
H      -3.09161483      1.27444861      1.61768620
H      -4.75528173      0.64917464      1.53923645
