38
O=C1OC(c2ccc(O)cc2)(c2ccc(O)cc2)c2ccccc21
O      -0.28002038     -2.76567997     -2.98585369
C      -0.27825645     -2.10374508     -1.96781481
O       0.04885507     -0.78784979     -1.85479324
C       0.00056924     -0.30182729     -0.47572662
C      -0.97220043      0.88842226     -0.38733195
C      -0.92177551      1.77799328      0.70515004
C      -1.81750912      2.84463644      0.80616209
C      -2.77821340      3.03282792     -0.17723424
O      -3.63217669      4.08597788     -0.03855771
C      -2.86066805      2.17029302     -1.26303381
C      -1.96391241      1.10219950     -1.36496275
C       1.45757676      0.08470027     -0.16410370
C       2.20631550     -0.48896527      0.87929796
C       3.52534501     -0.09170355      1.12027610
C       4.11545575      0.87735652      0.32121478
O       5.40276938      1.23063929      0.59542322
C       3.41010032      1.45922095     -0.72268830
C       2.09185579      1.06274439     -0.96277440
C      -0.54326165     -1.50215545      0.24366346
C      -0.92524848     -1.67495861      1.56967442
C      -1.40706132     -2.92512080      1.97371493
C      -1.51326168     -3.98339198      1.05743624
C      -1.14611393     -3.79933853     -0.27494011
C      -0.67125655     -2.55142981     -0.64395112
H      -0.17732062      1.65299919      1.48945261
H      -1.76389165      3.52661661      1.65025672
H      -4.23715946      4.09631018     -0.79833370
H      -3.61008840      2.30766540     -2.03636985
H      -2.04994373      0.43792580     -2.22332435
H       1.79156987     -1.25911658      1.52348764
H       4.09264462     -0.54390304      1.92943517
H       5.68673262      1.89270432     -0.05612656
H       3.86084091      2.21457633     -1.35844926
H       1.55028477      1.52294361     -1.78921112
H      -0.85462597     -0.86255011      2.28767038
H      -1.70738162     -3.07916596      3.00852866
H      -1.89308119     -4.94792901      1.38741320
H      -1.23648689     -4.59992234     -1.00267635
