23
CCC(CO)(CO)CO
C      -0.81283820      2.00212058     -1.18872866
C      -0.64420993      1.31693331      0.16234643
C      -0.07403953     -0.13137208      0.12560451
C       0.11201931     -0.57865223      1.59934714
O       0.48734836     -1.95400078      1.68683269
C      -1.06377172     -1.08195795     -0.58880479
O      -0.56609740     -2.41210552     -0.69466461
C       1.29010041     -0.19470195     -0.59661016
O       2.19263986      0.76906574     -0.05763254
H      -1.50913024      1.46151929     -1.83509101
H       0.14178393      2.10654407     -1.71168462
H      -1.21764917      3.00936871     -1.04299321
H       0.00112141      1.95120947      0.78393299
H      -1.62278055      1.30478778      0.66040401
H      -0.82357851     -0.46250994      2.15808949
H       0.88060983      0.01967411      2.10127319
H       0.73629336     -2.11218206      2.61636052
H      -1.27111292     -0.74679521     -1.60908803
H      -2.01970340     -1.12189305     -0.05479824
H      -0.18468536     -2.63239631      0.18394475
H       1.75546795     -1.18105703     -0.49457895
H       1.17919294      0.00890113     -1.66710934
H       3.03301957      0.65949993     -0.53635154
