19
Nc1cc(S(=O)(=O)O)ccc1O
N      -2.02869126     -0.40210423     -1.84478175
C      -1.24001810     -0.18122374     -0.69894529
C       0.12670130     -0.45078628     -0.70668234
C       0.89253876     -0.17372548      0.43374293
S       2.62284145     -0.54270538      0.40704857
O       3.28713186      0.31199404      1.36740768
O       2.76354485     -1.98030563      0.42734867
O       3.12408441     -0.01105569     -1.03192737
C       0.32287261      0.41330523      1.56828392
C      -1.02839487      0.75054024      1.55196321
C      -1.78141757      0.48038193      0.41393270
O      -3.07717280      0.91820633      0.37733826
H      -1.59312628     -1.04832541     -2.49985807
H      -2.95775353     -0.74052346     -1.59725241
H       0.59682591     -0.89621229     -1.57990899
H       3.81201495      0.66862808     -0.86740468
H       0.92326429      0.63053059      2.44890223
H      -1.48631003      1.24493562      2.40389175
H      -3.27893596      1.00844554     -0.57309903
