12
N#Cc1cccnc1
N       3.47701558     -0.43590135     -0.42718382
C       2.34159610     -0.24773873     -0.27893145
C       0.94412485     -0.01915122     -0.09703657
C       0.01783247     -1.05696957     -0.20373841
C      -1.33662048     -0.78639934     -0.01807582
C      -1.71422098      0.51627098      0.26819548
N      -0.84126662      1.54198646      0.37785990
C       0.46925127      1.25159136      0.19275423
H       0.34063873     -2.07081556     -0.42939923
H      -2.08042373     -1.57237182     -0.09470161
H      -2.75807274      0.77723990      0.42130401
H       1.14014555      2.10225889      0.28895329
