42
O=C1c2ccccc2C(=O)C1C(=O)C(c1ccccc1)c1ccc(Cl)cc1
O       2.35013644     -1.03591195      1.60467510
C       2.44569472     -0.26886110      0.66376111
C       3.65561872     -0.07435412     -0.13354791
C       4.88434931     -0.69385008     -0.00378876
C       5.88890016     -0.32450096     -0.90344533
C       5.64716831      0.64305383     -1.89928059
C       4.39666897      1.25807283     -2.01282155
C       3.41684690      0.87809588     -1.11512324
C       2.04059105      1.36130063     -1.00634663
O       1.56368735      2.23445127     -1.70810483
C       1.36133882      0.62791473      0.12427401
C       0.16651861     -0.17529995     -0.31510939
O       0.15478633     -0.72080775     -1.42147966
C      -0.97477771     -0.29981655      0.70251373
C      -1.74271159      1.00579726      0.89234556
C      -1.93340296      1.92214810     -0.15542623
C      -2.64124635      3.10681033      0.05671617
C      -3.17683797      3.38763279      1.31126539
C      -3.01028816      2.48225907      2.35601280
C      -2.30123794      1.29807706      2.14852119
C      -1.88602197     -1.49686699      0.44303048
C      -1.82758985     -2.61620790      1.29182030
C      -2.65308314     -3.72201706      1.07180751
C      -3.54133015     -3.72129474     -0.00036864
Cl     -4.55747625     -5.08348723     -0.26977217
C      -3.60926355     -2.62608419     -0.85656376
C      -2.78430964     -1.51990152     -0.63714218
H       5.06059073     -1.44008228      0.76494656
H       6.87063854     -0.79093709     -0.83728493
H       6.44487272      0.91226578     -2.58988456
H       4.19944851      2.00317605     -2.77773334
H       1.10122757      1.36612473      0.88924380
H      -0.45990064     -0.49542102      1.65541977
H      -1.54038755      1.73007770     -1.15327566
H      -2.77789029      3.80934183     -0.76206522
H      -3.73093035      4.30880882      1.47189242
H      -3.43802746      2.69564398      3.33236981
H      -2.19320728      0.59924971      2.97609604
H      -1.13565234     -2.64026528      2.13180325
H      -2.59521792     -4.57901509      1.73730952
H      -4.29576570     -2.62566294     -1.69872787
H      -2.84252701     -0.67965658     -1.32602272
