27
CC1=CC(C)C(C=O)C(C)C1
C       2.70587993     -1.18336163      0.92972944
C       1.34918389     -0.72585980      0.47319241
C       0.33501533     -1.58938883      0.28661600
C      -1.06028729     -1.18957693     -0.13294153
C      -1.33747650     -1.71871807     -1.54343028
C      -1.29920083      0.33446825     -0.04859188
C      -1.67115254      0.69078072      1.37949153
O      -2.68195424      1.32535382      1.66945710
C      -0.07388217      1.13403244     -0.53140528
C      -0.30572556      2.64606011     -0.49244596
C       1.20255976      0.75785567      0.24104563
H       2.97406297     -0.69187398      1.87052600
H       3.46291741     -0.93582035      0.17865859
H       2.74206094     -2.26504977      1.09631069
H       0.49596926     -2.65381607      0.45419297
H      -1.76055246     -1.69345910      0.54733505
H      -2.36316610     -1.48654095     -1.84962030
H      -1.22074098     -2.80778335     -1.58282162
H      -0.65696512     -1.28461540     -2.28383889
H      -2.16836989      0.59977731     -0.66560165
H      -0.96712979      0.37067855      2.16658780
H       0.09181284      0.87288779     -1.58622923
H      -0.42637760      3.01371859      0.53169660
H       0.54327324      3.17576021     -0.93785014
H      -1.20263463      2.91586712     -1.05970768
H       1.22441938      1.26397887      1.21452395
H       2.06846075      1.12464481     -0.32487933
