27
CC12CCC(C1)C(C)(C)C2=O
C      -2.17632173     -1.66064771     -0.43499320
C      -1.17311546     -0.57530787     -0.13966017
C      -1.65306685      0.86674185     -0.37951845
C      -0.68654110      1.69725899      0.48945278
C       0.31611993      0.64495819      1.01536409
C      -0.65226653     -0.51554803      1.29886049
C       1.22869087      0.07879734     -0.12389414
C       2.30440936     -0.86932519      0.41320862
C       1.86770946      1.14651449     -1.00936249
C       0.15670739     -0.70314816     -0.88047271
O       0.33234568     -1.31088729     -1.92600102
H      -3.06630504     -1.55918029      0.19458548
H      -2.49568266     -1.62489854     -1.48210944
H      -1.74787055     -2.65311350     -0.25769796
H      -2.68539554      1.01743101     -0.04481509
H      -1.58544131      1.15720829     -1.43376434
H      -0.22331185      2.51825978     -0.06286779
H      -1.23758039      2.14206648      1.32735535
H       0.87524689      0.99081793      1.88855395
H      -1.43050608     -0.25506646      2.02563549
H      -0.15963047     -1.43509149      1.62754618
H       2.90292770     -1.28506310     -0.40582856
H       1.88498594     -1.72477966      0.95112725
H       2.98301406     -0.34254292      1.09268253
H       1.13021409      1.68211538     -1.61590537
H       2.41971920      1.87600226     -0.40755183
H       2.57094500      0.69642821     -1.71992967
