83
CCCCc1oc2ccc(NS(C)(=O)=O)cc2c1C(=O)c1ccc(OCCCN(CCCC)CCCC)cc1
C      -6.17421505      3.76375569     -0.27095176
C      -5.17505665      4.36747004     -1.24390623
C      -3.86255296      3.58612934     -1.37268038
C      -3.95739945      2.27824329     -2.16476006
C      -4.52788026      1.14077039     -1.39020321
O      -5.69378039      0.63537668     -1.88914224
C      -6.11608252     -0.33412369     -1.03803985
C      -7.27982996     -1.08446548     -1.18693891
C      -7.54141865     -2.03279802     -0.19254440
C      -6.67606571     -2.19296517      0.89251583
N      -6.95099817     -3.20104090      1.86445668
S      -6.40929342     -4.76881991      1.51413828
C      -7.92855916     -5.55478237      1.02446385
O      -6.01902803     -5.33353562      2.78886140
O      -5.50449866     -4.75208412      0.38640119
C      -5.50380000     -1.43315141      1.00708997
C      -5.22254933     -0.47401734      0.01421330
C      -4.16488671      0.45621683     -0.23671233
C      -2.98923487      0.67128036      0.59091364
O      -3.04836018      0.67318451      1.81676818
C      -1.67057382      0.86489973     -0.06150492
C      -1.28610877      0.09121927     -1.16345067
C      -0.03509977      0.29115020     -1.75513867
C       0.83668161      1.25191823     -1.23982805
O       2.06732790      1.54449750     -1.76072122
C       2.76913034      0.42961838     -2.31999983
C       4.22985878      0.81846863     -2.54481234
C       4.96610921      1.22004073     -1.25792026
N       4.96183921      0.18550801     -0.20676216
C       5.83046489     -0.95559648     -0.54522084
C       5.76201803     -2.10887850      0.46896465
C       6.59194724     -3.32734031      0.05120656
C       6.00674774     -4.08460783     -1.13172744
C       5.22069954      0.77782857      1.11897738
C       6.63218508      1.33987362      1.34567407
C       6.76172034      1.95171045      2.74316693
C       8.15323948      2.51975894      2.97469525
C       0.45000163      2.02178295     -0.14087008
C      -0.79302890      1.81984008      0.46158618
H      -6.98574861      4.47362351     -0.08180279
H      -5.70279911      3.52755770      0.68864237
H      -6.62881689      2.85534029     -0.67192736
H      -5.64320764      4.48789089     -2.22784210
H      -4.93002256      5.37647944     -0.88950274
H      -3.15680744      4.23649372     -1.90681672
H      -3.43153992      3.42159441     -0.37867743
H      -2.95354912      1.99885877     -2.50386735
H      -4.54259460      2.44489311     -3.07783943
H      -7.94183091     -0.93543354     -2.03114786
H      -8.44120447     -2.63682494     -0.26911600
H      -6.65890656     -2.96473302      2.81651698
H      -7.71812068     -6.61281446      0.85161984
H      -8.65846141     -5.45095427      1.83007690
H      -8.28966738     -5.09705810      0.10244890
H      -4.81600930     -1.57791413      1.83514075
H      -1.94554658     -0.67281878     -1.56921218
H       0.22985647     -0.30414421     -2.62254557
H       2.70572488     -0.44568890     -1.66080117
H       2.33080915      0.17698974     -3.29303009
H       4.26323504      1.67982332     -3.22453262
H       4.75122329      0.00030698     -3.05281093
H       5.99467135      1.50400011     -1.51434525
H       4.48336578      2.13177338     -0.88151814
H       5.51426756     -1.35535956     -1.51231588
H       6.87156620     -0.63345538     -0.66814326
H       6.14883984     -1.77370187      1.43736353
H       4.71906339     -2.40992728      0.62513409
H       7.61886934     -3.02108481     -0.17901866
H       6.64905611     -4.01574889      0.90362421
H       6.02588853     -3.48433389     -2.04623205
H       4.97163585     -4.38159872     -0.93287712
H       6.58832064     -4.99303522     -1.31982181
H       4.48602861      1.57593749      1.29186898
H       4.99284655      0.03840921      1.89556104
H       7.38007201      0.54651764      1.23664230
H       6.85915609      2.10819462      0.59758548
H       6.02254400      2.75108116      2.87010918
H       6.55184849      1.18994324      3.50380877
H       8.91687153      1.74063657      2.87736680
H       8.22701828      2.94345295      3.98078265
H       8.37661041      3.31273915      2.25313551
H       1.13036591      2.77057297      0.25720885
H      -1.07459174      2.41118435      1.33045687
