28
CCC(C)(C)c1ccc(O)cc1
C      -2.12147249     -1.32204489      0.97923336
C      -2.00278458      0.16699310      0.66727657
C      -0.98285704      0.53242749     -0.45494619
C      -1.47359911     -0.07520273     -1.79113458
C      -1.00460210      2.07027795     -0.64204323
C       0.44816826      0.11095921     -0.06837517
C       1.22997880     -0.73882711     -0.87033547
C       2.52617285     -1.10430974     -0.49172164
C       3.06234420     -0.62487096      0.69331195
O       4.32843130     -1.00702768      1.02234756
C       2.32291897      0.21824169      1.50972457
C       1.02719477      0.58192801      1.12858584
H      -2.83454016     -1.47220614      1.79680204
H      -1.16465616     -1.74868213      1.29342844
H      -2.48909991     -1.88723480      0.11837869
H      -1.75225779      0.69051657      1.59822839
H      -2.99870393      0.53286101      0.38325718
H      -2.50403011      0.23097978     -2.00750329
H      -0.85568048      0.25833067     -2.63352130
H      -1.45498066     -1.17006676     -1.78143909
H      -1.99403794      2.41492197     -0.96502737
H      -0.27789948      2.38761614     -1.39957957
H      -0.76593460      2.60350273      0.28489975
H       0.85576828     -1.13929528     -1.80808594
H       3.11333210     -1.76304405     -1.12532214
H       4.56311069     -0.59586717      1.87004672
H       2.72929713      0.60296307      2.43936225
H       0.47041918      1.24616003      1.78600786
