15
CC(=O)N(C)C
C       2.01266877      0.06183905     -0.10919290
C       0.71387157      0.82653813     -0.16006944
O       0.71795835      2.02607359     -0.43853825
N      -0.44965303      0.12124939      0.12344976
C      -0.51355059     -1.32596151      0.25631460
C      -1.72334197      0.80558291     -0.02757170
H       2.00448264     -0.75083005     -0.84015825
H       2.83854841      0.73490980     -0.35985652
H       2.18341823     -0.32458600      0.89894020
H      -0.77743614     -1.75193823     -0.71613359
H      -1.28060561     -1.58712295      0.99138004
H       0.43551680     -1.75218201      0.58500134
H      -2.15897236      0.52388303     -0.99088303
H      -2.39325515      0.50016292      0.78155523
H      -1.60964993      1.89238195      0.00576252
