69
CCCCCCCCCCCCCCCCCCCCCC(N)=O
C      11.26142338     -0.68920315      1.39503563
C       9.75865193     -0.89408967      1.50277527
C       9.01183954     -0.15661855      0.39119025
C       7.49932124     -0.36106816      0.50598573
C       6.75547134      0.37882557     -0.60816933
C       5.24401404      0.12569473     -0.60812338
C       4.53045119      0.71530855      0.61132627
C       3.01648583      0.47846809      0.60337106
C       2.28620560      1.23583425     -0.50825572
C       0.76808986      1.07183931     -0.38575742
C       0.03851159      1.82623467     -1.49958416
C      -1.48896448      1.78464390     -1.37383664
C      -2.17147821      0.66835572     -2.17191727
C      -1.92981085     -0.76275320     -1.68940805
C      -2.34433273     -1.05396685     -0.24318581
C      -3.80842757     -0.75875780      0.09999600
C      -4.80204837     -1.56707584     -0.73796590
C      -6.25081315     -1.42933789     -0.25681230
C      -6.79953313     -0.00681347     -0.39316029
C      -8.30488080      0.08789694     -0.12773326
C      -8.68998955     -0.25670065      1.31028683
C     -10.16336436     -0.02809329      1.57512523
N     -10.54491964     -0.28738566      2.85964620
O     -10.97822665      0.34405721      0.74122521
H      11.51924635      0.37203132      1.47431514
H      11.64117251     -1.06510964      0.43921337
H      11.77596261     -1.22454462      2.19943805
H       9.41651944     -0.53776838      2.48179881
H       9.53718640     -1.96686409      1.45214911
H       9.35885959     -0.51605269     -0.58543105
H       9.24197794      0.91480597      0.44174826
H       7.26859088     -1.43197373      0.45373290
H       7.16461723     -0.00278543      1.48578196
H       7.15453504      0.05516218     -1.57812237
H       6.94804981      1.45623362     -0.53193748
H       5.05079738     -0.95196218     -0.66656179
H       4.83623877      0.57080067     -1.52216603
H       4.93060575      0.26087292      1.52448792
H       4.73371410      1.79084195      0.67688600
H       2.81196791     -0.59565985      0.51752652
H       2.61745516      0.79899252      1.57393605
H       2.60674641      0.86667703     -1.48868609
H       2.54530880      2.30033375     -0.45936563
H       0.52251383      0.00717795     -0.41867404
H       0.43798367      1.45008166      0.58915401
H       0.34958955      2.87787038     -1.45157605
H       0.35359952      1.45438576     -2.48144978
H      -1.79666675      1.76234568     -0.32289812
H      -1.87280454      2.73169856     -1.77629687
H      -3.25071637      0.86376132     -2.18027793
H      -1.85275899      0.73730183     -3.21993704
H      -2.46688888     -1.44587384     -2.35882724
H      -0.87102283     -1.01529366     -1.81350497
H      -1.70832438     -0.48411083      0.44342473
H      -2.13905299     -2.11154699     -0.03415624
H      -4.00174777      0.31333713     -0.01070810
H      -3.96110000     -0.99297849      1.16099186
H      -4.52739689     -2.62826471     -0.69689548
H      -4.74449187     -1.26478889     -1.78976604
H      -6.87322769     -2.11341585     -0.84643966
H      -6.31465074     -1.76021526      0.78586285
H      -6.60785211      0.35737395     -1.40992768
H      -6.27290770      0.66812527      0.29109489
H      -8.62878469      1.11230704     -0.35294493
H      -8.84520196     -0.56570190     -0.82423395
H      -8.47258035     -1.30924873      1.52301585
H      -8.11632626      0.36334370      2.00923038
H     -11.50928480     -0.10173243      3.10328047
H      -9.88312615     -0.46526470      3.60158472
