18
Oc1c(I)cc(Cl)c2cccnc12
O       2.20715761     -1.82896762     -0.18604097
C       1.56998608     -0.61430041     -0.04846608
C       2.30807430      0.55870836      0.10729407
I       4.39504850      0.55990958      0.14277725
C       1.64155558      1.77174673      0.24416922
C       0.24486950      1.79750710      0.22368735
Cl     -0.51616155      3.34409138      0.39972973
C      -0.51129813      0.60880369      0.06570401
C      -1.92225193      0.54580367      0.03413352
C      -2.57409990     -0.67215742     -0.12565584
C      -1.80133328     -1.80752022     -0.25124946
N      -0.45114914     -1.80056549     -0.22755164
C       0.17597950     -0.61430458     -0.07205535
H       1.47682402     -2.47869796     -0.27774776
H       2.19742427      2.69831757      0.36673932
H      -2.52466027      1.44598780      0.13388391
H      -3.65671816     -0.72950376     -0.15098198
H      -2.25924698     -2.78485841     -0.37836928
