12
C=COC(C)=O
C       2.47052298      0.52966291      0.69332362
C       1.41024349      0.15648978     -0.02552690
O       0.13374971      0.10913059      0.53447517
C      -0.87842079     -0.28958039     -0.30237993
C      -2.17298163     -0.28418248      0.45503697
O      -0.77772938     -0.60567671     -1.48088258
H       2.37148640      0.80801123      1.73700709
H       3.45877198      0.56287094      0.24751500
H       1.47286112     -0.12754763     -1.06861835
H      -2.11553794     -0.98383430      1.29266133
H      -2.39049604      0.72613687      0.81052238
H      -2.98246990     -0.60148081     -0.20866249
