66
CC(C)CCCCCOC(=O)c1ccccc1C(=O)OCCCCCC(C)C
C      -7.85213956      1.02517180      1.82866350
C      -6.94347699     -0.08207813      1.28604235
C      -7.33234997     -1.42204436      1.91273286
C      -7.01930345     -0.10864323     -0.25221102
C      -6.13224894     -1.14824476     -0.94823445
C      -4.64077684     -0.97277459     -0.65333152
C      -3.79261279     -1.93192067     -1.49469973
C      -2.30207379     -1.80715102     -1.18759039
O      -1.87127169     -0.47723634     -1.50127853
C      -0.54693242     -0.26680601     -1.30479794
O       0.28617887     -1.08902596     -0.96484614
C      -0.24598632      1.15204101     -1.57643047
C      -0.72729061      1.75196250     -2.75005815
C      -0.38638976      3.07264512     -3.05071945
C       0.43800429      3.79740129     -2.18852781
C       0.91855283      3.20679958     -1.01855049
C       0.57613468      1.88179823     -0.71275912
C       1.02532543      1.30096795      0.56265378
O       0.26906506      0.84488225      1.40148460
O       2.37635623      1.36898099      0.60845727
C       2.98676294      0.73573532      1.74135827
C       3.15122574     -0.76713157      1.51550728
C       3.83413219     -1.14462758      0.19549151
C       5.22399607     -0.53813985     -0.03316121
C       6.25005915     -0.96956660      1.02024691
C       7.68495354     -0.45484257      0.78766838
C       7.76795271      1.07182398      0.82194661
C       8.29840880     -0.99509463     -0.50447991
H      -7.57420290      1.99913996      1.41220659
H      -8.90099236      0.83674948      1.57923443
H      -7.76947619      1.09443040      2.91834099
H      -5.91853321      0.15792767      1.59335209
H      -8.33209686     -1.73522768      1.59121378
H      -6.62223028     -2.20992595      1.64057505
H      -7.33602711     -1.35240506      3.00661686
H      -8.05826309     -0.28902311     -0.55888852
H      -6.75546630      0.88531556     -0.63821619
H      -6.45007806     -2.16052645     -0.67368098
H      -6.29519168     -1.05943805     -2.03012477
H      -4.44311639     -1.16134855      0.40822974
H      -4.34935528      0.06308198     -0.86249451
H      -3.96016690     -1.71297091     -2.55671890
H      -4.11089935     -2.96450970     -1.31318181
H      -2.11456303     -2.01327552     -0.12655346
H      -1.74620043     -2.52643001     -1.80038972
H      -1.35528210      1.19009154     -3.43843248
H      -0.75806098      3.53535702     -3.96290968
H       0.70153778      4.82568355     -2.42581230
H       1.54641213      3.78206508     -0.34237331
H       3.96363381      1.20827182      1.88488820
H       2.41258492      0.93193735      2.65513025
H       3.69351204     -1.20217007      2.36191010
H       2.15897167     -1.23454695      1.51387624
H       3.91020915     -2.23813628      0.14477159
H       3.18807116     -0.84689831     -0.63937451
H       5.56169635     -0.85562119     -1.02655238
H       5.14554052      0.55367521     -0.06616424
H       5.92272207     -0.62759979      2.00950456
H       6.27564806     -2.06607311      1.06680773
H       8.29380163     -0.83357993      1.61962062
H       7.25897650      1.52692030     -0.03344694
H       7.31736658      1.46678287      1.73866326
H       8.81351955      1.39969629      0.79556149
H       7.80955212     -0.58234291     -1.39249255
H       8.22191182     -2.08644210     -0.54541805
H       9.36027922     -0.73351660     -0.56321235
