9
O=[N+]([O-])[O-].O=[N+]([O-])[O-].[Cu+2]
O      -0.09292471      1.23864920      0.01145378
N       0.00000000      0.00000001      0.00000001
O       1.11920390     -0.53882011     -0.00857594
O      -1.02627920     -0.69982910     -0.00287785
O      -0.21388187      1.22362912      0.00209832
N       0.00000000      0.00000001      0.00000000
O      -0.95275398     -0.79704323     -0.00026820
O       1.16663584     -0.42658590     -0.00183011
Cu      0.00000000      0.00000000      0.00000000
