38
O=c1oc2ccccc2c(O)c1C1CCCc2ccccc21
O       1.67508258      2.89487387     -0.93588192
C       1.87146500      1.73123469     -0.59379634
O       3.16497974      1.24385413     -0.51241028
C       3.42414909     -0.09173970     -0.18571296
C       4.75864029     -0.49773358     -0.19849618
C       5.06985179     -1.82041874      0.10310604
C       4.05012990     -2.71724606      0.41733665
C       2.71812408     -2.29012186      0.43115480
C       2.38873246     -0.96314863      0.12222484
C       1.01085475     -0.46497933      0.09503745
O       0.07586959     -1.42760023      0.40936128
C       0.73666173      0.80779640     -0.26521505
C      -0.63121425      1.48292241     -0.44074876
C      -1.09494088      1.38906291     -1.91246866
C      -1.81082612      0.07494439     -2.19692630
C      -3.06905100     -0.04401277     -1.34214799
C      -2.84640235      0.31396405      0.10687420
C      -3.81367254     -0.06881832      1.04882300
C      -3.65704906      0.24376933      2.39941706
C      -2.53613258      0.95089379      2.82537220
C      -1.57561439      1.35295556      1.89905948
C      -1.71789641      1.04314369      0.53280747
H       5.54424868      0.21064277     -0.44707539
H       6.10289470     -2.15571782      0.08590785
H       4.28707667     -3.75237775      0.64861901
H       1.93852644     -3.00971516      0.67510336
H      -0.77855114     -1.01319288      0.62806599
H      -0.51944146      2.55678320     -0.23295168
H      -1.78167770      2.21892870     -2.13038173
H      -0.24638693      1.49826664     -2.59940066
H      -2.08309313      0.01879142     -3.25729324
H      -1.14027612     -0.77144314     -2.00081113
H      -3.84786947      0.61614752     -1.74486419
H      -3.43613097     -1.07501960     -1.41243529
H      -4.69871472     -0.61845194      0.73234681
H      -4.41224401     -0.06183217      3.11893770
H      -2.41263305      1.19382539      3.87870733
H      -0.70746920      1.91081055      2.25075523
