24
O=C1c2ccccc2C(=O)c2ccccc21
O       0.18065823      2.61999912     -0.55613130
C       0.09775017      1.41763078     -0.33361936
C       1.31176994      0.62131852     -0.06409721
C       2.56505980      1.24744237     -0.06345434
C       3.71817778      0.50275742      0.19032201
C       3.62384309     -0.86534771      0.44349229
C       2.37620245     -1.49147169      0.44338203
C       1.21747306     -0.74622545      0.18896818
C      -0.09775198     -1.41762428      0.19103845
O      -0.18066106     -2.61999615      0.41353019
C      -1.31177194     -0.62131759     -0.07849178
C      -2.56506049     -1.24744753     -0.07913946
C      -3.71817475     -0.50275873     -0.33290449
C      -3.62383554      0.86534621     -0.58607400
C      -2.37619857      1.49147337     -0.58597671
C      -1.21747256      0.74622850     -0.33155799
H       2.64686589      2.31514555     -0.26024428
H       4.69036678      0.99089884      0.19035143
H       4.52234451     -1.44587464      0.64127603
H       2.31070961     -2.55998099      0.64189626
H      -2.64688032     -2.31515123      0.11764721
H      -4.69036266     -0.99090117     -0.33294176
H      -4.52233342      1.44587385     -0.78386155
H      -2.31071802      2.55998263     -0.78449691
