11
C/C=C/C=O
C      -1.74951888     -0.03732977     -0.17866891
C      -0.31103540     -0.42227105     -0.05027287
C       0.68037098      0.46865917      0.08970550
C       2.08250423      0.02224169      0.21168671
O       2.99743268      0.82585995      0.34003968
H      -2.32855780     -0.48370967      0.63550745
H      -2.15011451     -0.40517076     -1.12821626
H      -1.89259902      1.04739442     -0.14484189
H      -0.09949808     -1.48901600     -0.07637301
H       0.51579936      1.53957008      0.12074290
H       2.25521644     -1.06622807      0.18069070
