37
CCN(CC)C(=S)[S-].CCN(CC)C(=S)[S-].[Zn+2]
C       2.25144989     -0.49927641      0.38113591
C       0.84779996     -0.26363121      0.92150302
N      -0.00543907      0.46570088     -0.02378147
C      -0.84033224     -0.37578218     -0.88886206
C      -2.23874687     -0.58782023     -0.32562729
C      -0.02136895      1.82915930     -0.09339254
S      -0.94685320      2.65369181     -1.28335256
S       0.88323356      2.79192112      1.00531742
C      -2.03445888     -1.15035057     -0.03525330
C      -0.66510883     -0.92081730      0.58920921
N      -0.09831399      0.38714594      0.24066876
C       0.80009849      0.38925258     -0.91965716
C       2.26395602      0.24662560     -0.52654640
C      -0.38615580      1.52062238      0.94529400
S      -1.35309430      1.47057390      2.36476722
S       0.20346434      3.05649229      0.44948113
Zn      0.00000000      0.00000000      0.00000000
H       2.84161749     -1.07444142      1.10135324
H       2.21752731     -1.06309492     -0.55707494
H       2.77807694      0.43826639      0.18261167
H       0.38522356     -1.24071879      1.11262175
H       0.86558180      0.22195200      1.90189679
H      -0.35488569     -1.35620621     -0.98004510
H      -0.86826764      0.00689670     -1.91358450
H      -2.78731186      0.35253773     -0.22297449
H      -2.81450079     -1.24692953     -0.98282416
H      -2.19280420     -1.05222503      0.66507934
H      -1.98126151     -1.07845452     -1.12671256
H      -2.77027816     -0.41751845      0.30718204
H      -2.40394992     -2.14807853      0.22133949
H       0.01634650     -1.69664134      0.21649035
H      -0.68109762     -1.07461578      1.67243084
H       0.53189639     -0.46225429     -1.55856818
H       0.63278749      1.26485508     -1.55416976
H       2.42782650     -0.68005894      0.03352772
H       2.89401709      0.21828404     -1.42099876
H       2.60332617      1.07493792      0.10151536
