18
O=CC1CC=CCC1
O      -2.70697493     -1.35453001      0.77757251
C      -1.62875470     -0.76714954      0.80234898
C      -1.08368189      0.00784771     -0.37875468
C      -0.58173405      1.38227961      0.07955148
C       0.82268119      1.36902604      0.61283441
C       1.65231789      0.32450094      0.47960984
C       1.28568151     -0.93472107     -0.24683389
C       0.00878698     -0.80020633     -1.08269039
H      -0.98239036     -0.82169415      1.69528715
H      -1.92397538      0.15475173     -1.06932477
H      -1.24788659      1.78935703      0.84997195
H      -0.60990177      2.07869736     -0.76756910
H       1.16532862      2.26276635      1.13037092
H       2.65235388      0.37710742      0.90517067
H       2.11148179     -1.22752208     -0.90542694
H       1.16745906     -1.73829539      0.48967999
H      -0.35775130     -1.80073268     -1.34274601
H       0.25696002     -0.30148296     -2.02905210
