26
O=C(O)CC(C(=O)O)C(CC(=O)O)C(=O)O
O       3.25805464      0.76926536      1.29636443
C       2.93155869      0.38056227      0.18803874
O       3.79221629      0.42880001     -0.84447119
C       1.60003655     -0.20604965     -0.19296593
C       0.46016929      0.74196322      0.18946257
C       0.34250504      1.82251179     -0.86094946
O      -0.47288973      1.87651267     -1.76506692
O       1.28388800      2.77454565     -0.73225577
C      -0.91073798      0.04404985      0.36399070
C      -1.21715818     -1.03845267     -0.68458482
C      -2.65502117     -1.48017771     -0.61274882
O      -3.52418088     -1.04828934      0.12375044
O      -2.92532765     -2.45694869     -1.49912237
C      -0.96657213     -0.55778357      1.74916373
O      -0.74687079     -1.72060140      2.04249548
O      -1.25629340      0.35218777      2.69656831
H       4.60124076      0.82890834     -0.46093917
H       1.52778934     -1.16351010      0.33458885
H       1.59067525     -0.42166255     -1.26839288
H       0.69375922      1.25861548      1.13079050
H       1.09784801      3.40836209     -1.45768347
H      -1.71015572      0.79758134      0.32069588
H      -1.04823986     -0.65005872     -1.69389355
H      -0.58815340     -1.92355992     -0.53965870
H      -3.87429252     -2.65668802     -1.35531860
H      -1.28384770     -0.16008349      3.53214201
