26
CCCOc1ccc([N+](=O)[O-])cc1N
C      -4.39991055      0.37785284     -0.09148436
C      -3.20571353     -0.49554990      0.24864625
C      -1.89334156      0.27818433      0.16478406
O      -0.83625011     -0.61999546      0.50178164
C       0.45052074     -0.15532356      0.37030486
C       0.80066696      1.17802537      0.13482515
C       2.14560109      1.54042688      0.01698622
C       3.13910427      0.56003579      0.12686203
N       4.54981731      0.93552495     -0.02053737
O       4.80422593      2.11140698     -0.31890133
O       5.40466083      0.05814132      0.16679299
C       2.80032475     -0.77632861      0.36753953
C       1.45859272     -1.13248667      0.53094805
N       1.11556354     -2.49364321      0.64369662
H      -4.32019210      0.77208802     -1.10956999
H      -4.47694340      1.22332182      0.59954309
H      -5.32568047     -0.20192333     -0.02334053
H      -3.32353415     -0.91128940      1.25660713
H      -3.16864228     -1.35626411     -0.42996519
H      -1.91553037      1.11133583      0.87713239
H      -1.75844064      0.65880026     -0.85498129
H       0.05210720      1.95766721      0.03725745
H       2.39840164      2.58256689     -0.16899236
H       3.56732471     -1.54525158      0.42101656
H       0.15632576     -2.60193234      0.97243851
H       1.78094167     -3.05539032      1.16339681
