22
CCOCCOCC
C      -4.00240464     -0.07184557     -0.14374586
C      -2.61190829      0.47017903      0.12366948
O      -1.88973371     -0.50143208      0.87655363
C      -0.56219423     -0.08362156      1.19629825
C       0.41599852     -0.36896133      0.05857083
O       1.72561201      0.04520588      0.44770353
C       2.68902283     -0.23736229     -0.56463869
C       4.04552336      0.23417481     -0.08001570
H      -4.52017214     -0.28680756      0.79690530
H      -4.59660915      0.64435311     -0.71813025
H      -3.94856997     -1.01336903     -0.70030729
H      -2.10564576      0.66792109     -0.82617278
H      -2.68220267      1.40253826      0.69445520
H      -0.53945209      0.97399103      1.48651744
H      -0.24714550     -0.64698587      2.08211254
H       0.41091999     -1.44120665     -0.17110562
H       0.11798170      0.16784602     -0.84846032
H       2.71698654     -1.31525524     -0.75829593
H       2.42041764      0.28735372     -1.48805071
H       4.81782904      0.03623300     -0.82852422
H       4.02683378      1.30806942      0.13330265
H       4.31891275     -0.27101817      0.85226319
