7
FS(F)(F)(F)(F)F
F      -1.29903811     -0.75000000      0.00000000
S       0.00000000      0.00000000      0.00000000
F      -0.00000000     -1.50000000      0.00000000
F       1.29903811     -0.75000000      0.00000000
F       0.00000000      1.50000000      0.00000000
F       1.29903811      0.75000000      0.00000000
F      -1.29903811      0.75000000      0.00000000
