50
O=C(OC1CCCCC1)c1ccccc1C(=O)OC1CCCCC1
O      -0.00374078      0.10055692      1.96266400
C      -0.61246609     -0.64661473      1.21804672
O      -1.55824340     -0.31453733      0.30785639
C      -1.84382788      1.09301375      0.18619678
C      -2.37643467      1.33542111     -1.22971693
C      -3.73537387      0.67312130     -1.45897309
C      -4.75145982      1.09408144     -0.40157666
C      -4.23317770      0.84284879      1.01130527
C      -2.87629834      1.50932864      1.23957992
C      -0.40399340     -2.10329519      1.16575826
C      -1.50697838     -2.95384171      1.33571490
C      -1.32087069     -4.33648762      1.38366829
C      -0.03787429     -4.87311612      1.27411642
C       1.06181476     -4.02978790      1.10146461
C       0.88100940     -2.64080117      1.03205978
C       2.07858442     -1.81128549      0.79013163
O       3.15846132     -2.01583555      1.31762192
O       1.79856598     -0.90334706     -0.17530491
C       2.87284015     -0.02090798     -0.54550473
C       2.96763617      1.13725646      0.45240602
C       3.98829159      2.18014997      0.00879404
C       3.69341192      2.69010719     -1.39925333
C       3.58225172      1.54494790     -2.40204349
C       2.56499095      0.50251334     -1.95098789
H      -0.92024673      1.67248815      0.31022964
H      -1.66614307      0.94040117     -1.96581754
H      -2.46644826      2.41437747     -1.40513318
H      -3.62264236     -0.41783703     -1.44346607
H      -4.10917430      0.93836384     -2.45444614
H      -4.98006180      2.16035044     -0.52094321
H      -5.68934492      0.54801677     -0.55308864
H      -4.14873467     -0.23700339      1.18381151
H      -4.95633085      1.22458280      1.74094507
H      -3.00073925      2.59881026      1.21340342
H      -2.52435028      1.24629136      2.24341362
H      -2.50760817     -2.54189287      1.44825772
H      -2.17542063     -4.99580912      1.52000184
H       0.10728214     -5.95027994      1.32251732
H       2.05968732     -4.45624244      1.01221108
H       3.82050497     -0.57458224     -0.57955503
H       1.98232373      1.60740273      0.56637240
H       3.23255581      0.75949033      1.44666000
H       4.99329418      1.74142113      0.03554217
H       3.98718940      3.02018737      0.71239943
H       4.48296192      3.38149112     -1.71441919
H       2.75516320      3.25856583     -1.39100302
H       3.29582856      1.94029094     -3.38303691
H       4.56316026      1.06905891     -2.52281847
H       2.54535838     -0.33416523     -2.65986910
H       1.55481638      0.93273264     -1.97293209
