61
COc1ccc(Cl)cc1C(=O)NCCc1ccc(S(=O)(=O)NC(=O)NC2CCCCC2)cc1
C      -6.49448328      1.63437242     -0.26022963
O      -5.89539704      0.34362657     -0.23131584
C      -5.88950854     -0.34164140      0.95948222
C      -6.46865491      0.16153925      2.13495675
C      -6.43805922     -0.57649330      3.32269868
C      -5.83050900     -1.82597314      3.34741328
Cl     -5.79965657     -2.73325513      4.80961308
C      -5.24898724     -2.34338653      2.19530933
C      -5.26968143     -1.61268207      0.99045159
C      -4.59049764     -2.26756046     -0.17838708
O      -4.05264664     -3.36334945     -0.03946269
N      -4.59099674     -1.59576553     -1.37993673
C      -3.76648584     -2.00312297     -2.50067729
C      -2.58438575     -1.05128985     -2.73432164
C      -1.67591454     -0.83582534     -1.54354604
C      -1.37350672      0.46944939     -1.12274513
C      -0.54869527      0.68906856     -0.01775473
C      -0.00582110     -0.40103548      0.66501944
S       0.99014470     -0.13154129      2.10694016
O       0.78729394      1.21725145      2.58702045
O       0.79121452     -1.26321831      2.99066983
N       2.54562278     -0.28998075      1.54863361
C       3.13173599      0.51870976      0.59241930
O       2.55430562      1.43201037      0.02643816
N       4.42991471      0.16620931      0.35459456
C       5.29185281      0.96262793     -0.50673732
C       5.85627336      2.16952159      0.25505477
C       6.82430727      2.97828464     -0.60517031
C       7.94099545      2.10563979     -1.16936148
C       7.38492298      0.90598030     -1.93150327
C       6.41981821      0.09264971     -1.07256109
C      -0.29372480     -1.70661856      0.25964108
C      -1.11567905     -1.91914091     -0.84953774
H      -5.97632535      2.32555843      0.41260448
H      -7.56445158      1.57645461     -0.03084671
H      -6.39360325      2.02655022     -1.27891520
H      -6.95510812      1.13220970      2.16637641
H      -6.89043209     -0.16845309      4.22360389
H      -4.77093958     -3.32135348      2.23237003
H      -5.02607008     -0.67931929     -1.40391133
H      -3.41416719     -3.02986666     -2.35710118
H      -4.41200056     -1.99859945     -3.38575327
H      -2.98817331     -0.08276078     -3.05637200
H      -1.97772171     -1.42479938     -3.56792027
H      -1.78684103      1.32933480     -1.64718906
H      -0.32920977      1.70704971      0.29946841
H       3.01368457     -1.10650873      1.91594423
H       4.86758749     -0.45396583      1.01853161
H       4.68219785      1.33284577     -1.34164956
H       5.04044411      2.81936298      0.59334901
H       6.37437402      1.82779613      1.16098200
H       6.27417901      3.44584304     -1.43048414
H       7.25667252      3.78964072     -0.00912949
H       8.57818581      1.75377347     -0.34875598
H       8.57613106      2.70267070     -1.83324404
H       6.86519316      1.25490763     -2.83292429
H       8.20959944      0.26612665     -2.26585490
H       5.99700854     -0.72470368     -1.67041347
H       6.97595766     -0.38004202     -0.25179727
H       0.10020594     -2.56245025      0.80407180
H      -1.34148857     -2.94236251     -1.14626478
