37
NNS(=O)(=O)c1ccc(Oc2ccc(S(=O)(=O)NN)cc2)cc1
N       7.18688114     -0.50774505      2.08119352
N       6.08811972      0.08115234      1.38339092
S       4.67863164      0.08168486      2.39443668
O       4.71829011     -1.10593480      3.22322382
O       4.59831163      1.40924132      2.96386453
C       3.39267365     -0.11904561      1.19337456
C       2.52260476      0.93909035      0.91358261
C       1.50960575      0.76251572     -0.03116086
C       1.36070780     -0.47281788     -0.67122490
O       0.40742838     -0.69840550     -1.63824907
C      -0.87859301     -0.29088820     -1.36506667
C      -1.52988554     -0.60647796     -0.16813802
C      -2.84843218     -0.19469909      0.03313566
C      -3.51130216      0.51212756     -0.97610028
S      -5.17999015      1.03827998     -0.70412586
O      -5.26026204      1.62896029      0.61622036
O      -5.66060596      1.72729811     -1.88211133
N      -6.01507296     -0.48122851     -0.66844196
N      -7.11507697     -0.41157058      0.23976361
C      -2.86928333      0.81478547     -2.18035155
C      -1.55076142      0.40082569     -2.37559792
C       2.24142553     -1.52173753     -0.39754771
C       3.25548668     -1.35129335      0.54542756
H       7.31369278     -0.01213796      2.97298735
H       6.89019217     -1.45160221      2.36925402
H       6.30134468      1.05172664      1.11492447
H       2.62523278      1.89793781      1.41703618
H       0.84580824      1.59106377     -0.26487522
H      -1.02082976     -1.17448585      0.60634508
H      -3.35294136     -0.43120294      0.96773651
H      -6.33550510     -0.70508239     -1.62078776
H      -7.71634991      0.37714349     -0.03069083
H      -6.73385730     -0.12255131      1.15235657
H      -3.38110135      1.36610566     -2.96618434
H      -1.04355805      0.62340313     -3.31146442
H       2.13293436     -2.47179705     -0.91492219
H       3.93403676     -2.17263844      0.76613658
