18
O=C/C=C/c1ccccc1
O       4.62985034      0.31434866     -0.23955016
C       3.66380823     -0.32265344      0.16104692
C       2.28487027      0.14530987     -0.07602027
C       1.24679793     -0.57171335      0.37617967
C      -0.15760396     -0.18464304      0.17838462
C      -1.11692543     -1.19034593     -0.00118671
C      -2.46632885     -0.86688595     -0.16520250
C      -2.87239001      0.46520786     -0.13992295
C      -1.93109457      1.47356441      0.05400581
C      -0.58120443      1.15067291      0.21750056
H       3.77375550     -1.26918572      0.71570508
H       2.18659940      1.07005680     -0.63155445
H       1.40323007     -1.50810466      0.90710164
H      -0.82317682     -2.23741658     -0.02493865
H      -3.19973968     -1.65566310     -0.31194427
H      -3.92208906      0.71733506     -0.26666579
H      -2.24708613      2.51332219      0.08325379
H       0.12872718      1.95679402      0.38607568
