38
CCc1cccc(CC)c1N(COC)C(=O)CCl
C      -0.46786714      3.32701158      0.66739916
C      -0.79363069      2.28199423     -0.39299290
C      -1.21517785      0.95695695      0.20861007
C      -2.45184860      0.90887345      0.87641917
C      -2.89213810     -0.25894565      1.49169184
C      -2.10441669     -1.40431945      1.45012035
C      -0.86533032     -1.40393888      0.78793255
C      -0.09515229     -2.70731864      0.73994699
C      -0.56056417     -3.61109396     -0.39232300
C      -0.42538855     -0.21525252      0.15690740
N       0.80328505     -0.23162605     -0.55050504
C       2.01546262     -0.01933811      0.22321848
O       2.25399158      1.38132565      0.31731841
C       3.50901497      1.65329068      0.92146718
C       0.89555839     -0.25680193     -1.94246895
O       1.98591090     -0.17182024     -2.51657595
C      -0.40701685     -0.38560087     -2.72775121
Cl     -0.15327950     -1.36070859     -4.19700542
H      -0.11746847      4.24877370      0.19207309
H       0.31328928      2.97583344      1.34895210
H      -1.34744469      3.57686504      1.26978170
H      -1.60673020      2.64977671     -1.03176256
H       0.06916969      2.17267661     -1.05483457
H      -3.08105288      1.79599453      0.92624210
H      -3.85009392     -0.27512361      2.00559154
H      -2.46820810     -2.31014088      1.93198135
H       0.98072402     -2.53263841      0.64770397
H      -0.21941760     -3.23098381      1.69655610
H      -1.62667228     -3.84573530     -0.30528308
H      -0.39760438     -3.14391754     -1.36780152
H      -0.00470042     -4.55397150     -0.37440588
H       1.90299601     -0.43851495      1.22983682
H       2.85858597     -0.51476913     -0.27221629
H       3.63051226      2.73768028      0.98943257
H       3.54820941      1.23363719      1.93136076
H       4.32380435      1.24914007      0.31299693
H      -0.74364761      0.60909945     -3.03078200
H      -1.19566321     -0.88636952     -2.16683227
