16
N#CCCCCC#N
N      -3.54235621     -0.71135104     -0.19735796
C      -2.70610184      0.08686022     -0.10038516
C      -1.63286973      1.08257887      0.02019032
C      -0.30709612      0.44942085      0.45188049
C       0.30709575     -0.44942122     -0.63264748
C       1.63286979     -1.08257856     -0.20095791
C       2.70610202     -0.08685983     -0.08038521
N       3.54235693      0.71135124      0.01658522
H      -1.92558909      1.83127388      0.76558518
H      -1.50385525      1.61323806     -0.92988223
H      -0.45147851     -0.13129038      1.37178452
H       0.39203914      1.25930849      0.69201304
H      -0.39203945     -1.25930909     -0.87277925
H       0.45147765      0.13128954     -1.55255179
H       1.50385683     -1.61323645      0.74911550
H       1.92558807     -1.83127459     -0.94635215
