25
O=C(O)COc1ccc2ccccc2c1
O       4.97640824     -1.10252681     -0.01569348
C       4.43839221     -0.01859563      0.13623405
O       5.19469086      1.08150174      0.35477967
C       2.95670046      0.30774908      0.11676645
O       2.19604992     -0.87085179     -0.11492586
C       0.83593451     -0.73707892     -0.16011080
C       0.14525802     -1.92657916     -0.39015039
C      -1.24907219     -1.93824145     -0.46097962
C      -1.97986486     -0.75302323     -0.30189334
C      -3.38241730     -0.74413488     -0.36974204
C      -4.09630335      0.44411947     -0.20931800
C      -3.41758765      1.63685933      0.02066442
C      -2.02330608      1.64406676      0.09075406
C      -1.28798111      0.45735903     -0.06835426
C       0.11849930      0.45021609     -0.00002246
H       6.11210970      0.73363411      0.34282529
H       2.79018545      1.02755568     -0.69267647
H       2.70190031      0.73329891      1.09402294
H       0.69777356     -2.85498331     -0.51574855
H      -1.75807607     -2.88208495     -0.64158319
H      -3.93005032     -1.66676475     -0.54875946
H      -5.18176969      0.43680969     -0.26416221
H      -3.97248598      2.56303367      0.14578291
H      -1.51352726      2.58776915      0.27137220
H       0.62853933      1.39089219      0.18011184
