19
C=CCSS(=O)CC=C
C       4.11945490     -0.35807820      2.06936713
C       3.35253035     -0.71905757      1.03139523
C       2.24314440      0.11591085      0.46276019
S       0.66932738     -0.75956263      0.68537076
S      -0.68996195      0.66535725      0.06123231
O       0.01213936      1.16401794     -1.16770501
C      -2.08692242     -0.38647101     -0.46298309
C      -3.19483901      0.45504144     -1.02433097
C      -4.44213952      0.49601266     -0.53693377
H       4.91325986     -1.00831969      2.42465851
H       3.97442113      0.58467921      2.58791318
H       3.54726430     -1.67169872      0.54212566
H       2.43039073      0.28010912     -0.60305353
H       2.19113642      1.09209600      0.95651519
H      -1.73017508     -1.08352892     -1.22788397
H      -2.42067317     -0.96045340      0.40758979
H      -2.94847965      1.05841479     -1.89756199
H      -5.19630955      1.12596422     -1.00041114
H      -4.74356847     -0.09043334      0.32565842
