36
CCC1(C2=CCCCCC2)C(=O)NC(=O)NC1=O
C       3.04512450      1.95813492     -1.00240652
C       1.53891289      1.69527699     -0.97686476
C       1.11271094      0.39509787     -0.22915596
C      -0.42988916      0.14660064     -0.15686080
C      -1.32293872      0.92434763     -0.81054346
C      -2.82842756      0.89627261     -0.76797216
C      -3.44719731      0.37507895      0.52411004
C      -3.40885460     -1.14159042      0.65885599
C      -2.10158172     -1.79768042      0.23145509
C      -0.84719345     -1.05452841      0.69247985
C       1.60432792      0.52919472      1.21277536
O       1.22905245      1.41817535      1.97810655
N       2.51171903     -0.39219422      1.65497890
C       3.05484879     -1.41075718      0.94144056
O       3.87308664     -2.17717525      1.43795515
N       2.64750749     -1.54318709     -0.34621500
C       1.71929342     -0.77967666     -0.99726381
O       1.42219017     -1.05722731     -2.15976964
H       3.58791134      1.14863376     -1.49907570
H       3.45186488      2.08270477      0.00533690
H       3.24947161      2.88075147     -1.55589028
H       1.05808553      2.56811378     -0.51578830
H       1.20092847      1.65801520     -2.02073583
H      -0.96268366      1.72838536     -1.44954555
H      -3.20989242      0.34866213     -1.63751756
H      -3.16597939      1.93444207     -0.88733710
H      -4.49573862      0.69471620      0.57312496
H      -2.95229121      0.83734385      1.38793151
H      -4.22337207     -1.57994115      0.06870811
H      -3.62025871     -1.39996064      1.70405804
H      -2.08541519     -2.81349086      0.64679692
H      -2.08391557     -1.92185212     -0.85893785
H      -0.94467316     -0.74538270      1.74031354
H      -0.04222175     -1.79803948      0.67023768
H       2.82561650     -0.29204519      2.61040346
H       3.03987172     -2.31521913     -0.86718831
