11
O=Cc1ccco1
O       2.81846303      0.73512598      0.18477341
C       2.04158887     -0.20466037      0.03205219
C       0.60868367     -0.09507795      0.00485315
C      -0.23360368      0.99180690      0.13005326
C      -1.55418692      0.49342389      0.02222047
C      -1.43664983     -0.86409767     -0.16175929
O      -0.12897767     -1.23188379     -0.17391240
H       2.43241721     -1.22826962     -0.09774616
H       0.07946017      2.01648842      0.28079385
H      -2.47751092      1.05365953      0.07229934
H      -2.14968393     -1.66651533     -0.29362783
