29
CNC(=O)Oc1ccccc1C(C)C
C       4.23014940     -1.13546700     -0.04543495
N       3.08713422     -0.66025434     -0.77513849
C       2.11125237      0.09306962     -0.18129642
O       2.16351585      0.51350880      0.96613440
O       1.07362820      0.27556561     -1.08084976
C       0.01434388      1.03502334     -0.56928103
C       0.10055815      2.42598269     -0.68070732
C      -0.94761072      3.21779065     -0.22118064
C      -2.07551197      2.61779545      0.33479510
C      -2.16142326      1.22465371      0.42564150
C      -1.12076311      0.40166660     -0.03800084
C      -1.21890713     -1.11095107      0.05941360
C      -1.16443810     -1.57196288      1.51803567
C      -2.47118177     -1.65361619     -0.63667852
H       5.01940990     -1.38447917     -0.75836395
H       3.94052180     -2.03007789      0.51203866
H       4.58391392     -0.37159989      0.65212637
H       2.85939892     -1.05097724     -1.67846617
H       0.98286311      2.88800730     -1.11306600
H      -0.88414307      4.30013273     -0.29144243
H      -2.89228988      3.23460240      0.70135582
H      -3.05359007      0.78806670      0.86890228
H      -0.36322523     -1.56516024     -0.45405068
H      -0.25433906     -1.21042733      2.00956183
H      -2.02183841     -1.20691002      2.09409340
H      -1.16464503     -2.66574303      1.57694982
H      -2.51575528     -1.31799807     -1.67874822
H      -3.39272782     -1.33109803     -0.14058160
H      -2.46429981     -2.74914318     -0.63769263
