12
OC(C(F)(F)F)C(F)(F)F
O       0.36181670     -1.37280979     -1.06575317
C      -0.03330362     -0.60059120      0.10247307
C       1.07939084      0.29697224      0.59800544
F       1.46239638      1.18197445     -0.34855024
F       0.73500951      0.98768562      1.70325642
F       2.17369953     -0.43500694      0.91868341
C      -1.22228222      0.29230532     -0.17739313
F      -2.28488269     -0.44404760     -0.58334929
F      -0.95767368      1.17706754     -1.16383333
F      -1.61940542      0.98291180      0.91009118
H       0.59904670     -0.74112984     -1.77374915
H      -0.29381204     -1.32533159      0.88011878
