17
C[Si](C)(C)C
C       0.30301753      1.82271536     -0.32010695
Si      0.00000002     -0.00000025     -0.00000043
C      -0.48495145     -0.24733004      1.79449939
C      -1.38301140     -0.60826305     -1.11079956
C       1.56494531     -0.96712238     -0.36359357
H       1.10762378      2.19873573      0.31875063
H       0.58773402      1.98978857     -1.36315251
H      -0.59897126      2.40648008     -0.11381608
H      -1.39726711      0.30930348      2.02850816
H      -0.66672743     -1.30575654      2.00333347
H       0.30932916      0.10155627      2.46107088
H      -2.30709830     -0.05635960     -0.91487342
H      -1.57656003     -1.67142017     -0.94004599
H      -1.12039580     -0.47305580     -2.16420980
H       1.86620059     -0.83661812     -1.40720961
H       2.38609416     -0.62767021      0.27469155
H       1.41003822     -2.03498334     -0.18304618
