26
CNC[C@H](O)c1ccc(O)c(O)c1
C      -4.06468070     -0.59989551     -0.67544925
N      -3.07009472      0.45411837     -0.49784763
C      -1.75743549     -0.13155537     -0.15238136
C      -0.75211594      0.96102409      0.28433751
O      -0.75428939      2.02420201     -0.67653936
C       0.64497536      0.39812145      0.44877155
C       0.98990547     -0.26726274      1.64154822
C       2.26183378     -0.81922879      1.81204235
C       3.19041359     -0.70633878      0.78991050
O       4.43420179     -1.24501462      0.95482162
C       2.86827087     -0.05157621     -0.39478125
O       3.83319560      0.02901952     -1.36120391
C       1.60301279      0.49716370     -0.57527577
H      -5.02210548     -0.15167112     -0.95845220
H      -3.77241806     -1.29911646     -1.46569212
H      -4.22272276     -1.15428934      0.25519795
H      -2.96751265      0.94039207     -1.39108098
H      -1.86242350     -0.86310796      0.65851721
H      -1.37262206     -0.66231128     -1.03287785
H      -1.06867443      1.40409759      1.23734364
H      -1.64954176      2.40373299     -0.60907601
H       0.26612900     -0.35837950      2.44922114
H       2.52517089     -1.33005460      2.73304934
H       4.89987634     -1.03621595      0.12050208
H       3.47252253      0.55706691     -2.09468936
H       1.34712891      1.00707953     -1.49991605
