26
CNC(=O)O/N=C/C(C)(C)SC
C      -4.76253999      1.30937063      0.97561627
N      -3.64912160      0.91422954      0.15722987
C      -2.49430943      0.41570175      0.70362808
O      -2.34829248      0.17482426      1.89529068
O      -1.55328161      0.25334895     -0.28445863
N      -0.35451361     -0.25474391      0.25226834
C       0.52035645     -0.36477547     -0.69452948
C       1.93181247     -0.87711894     -0.44316473
C       2.13139330     -1.42756816      0.97087771
C       2.21237834     -1.98449539     -1.46711774
S       3.10385800      0.50948972     -0.80117723
C       2.65025448      1.69148135      0.49833786
H      -4.90394042      0.60191072      1.79709848
H      -5.65890975      1.34099532      0.35206256
H      -4.56085510      2.30357967      1.38288115
H      -3.60329472      1.19895260     -0.81023800
H       0.27442843     -0.07260273     -1.73290142
H       1.49109195     -2.30246932      1.13782585
H       1.86618550     -0.70164200      1.74639694
H       3.16678603     -1.74509582      1.13911626
H       2.08017373     -1.63530307     -2.49857192
H       1.51740100     -2.82210685     -1.32996962
H       3.22899394     -2.38279059     -1.36844196
H       3.21198108      2.61607675      0.33740839
H       2.91611306      1.30719677      1.48554775
H       1.58585094      1.93355423      0.46205289
