38
CC(C)(C)NCC(O)c1ccc(O)c(CO)c1
C      -3.99955679      0.08752008     -0.46690072
C      -3.36955861      0.58281664      0.84601129
C      -4.38459311      0.36578561      1.98428957
C      -3.06380293      2.08605442      0.74629907
N      -2.18078955     -0.20773436      1.20702804
C      -0.99290072     -0.01668040      0.35799822
C       0.07773432     -1.08650373      0.68544115
O      -0.45073452     -2.38953870      0.40101462
C       1.35999742     -0.87359808     -0.09392451
C       1.41984568     -1.13908272     -1.46993312
C       2.60383887     -0.93926898     -2.17740321
C       3.73292944     -0.46430857     -1.51819088
O       4.85809595     -0.28933363     -2.27550684
C       3.70858078     -0.17552713     -0.14821558
C       4.92902032      0.28603679      0.60069655
O       5.71054986      1.15054625     -0.22231709
C       2.51149644     -0.39523083      0.55525835
H      -3.35495752      0.27951153     -1.33088056
H      -4.95259242      0.59433397     -0.65807922
H      -4.20307638     -0.98912242     -0.43173017
H      -4.64650863     -0.69360456      2.09395675
H      -3.98762543      0.71382423      2.94575490
H      -5.31445099      0.91483753      1.79441334
H      -2.40747446      2.31456788     -0.10044638
H      -2.58233480      2.45759274      1.65868357
H      -3.98484443      2.66378023      0.60352985
H      -2.41119290     -1.20638167      1.18264645
H      -0.56847052      0.97958507      0.52403805
H      -1.26651948     -0.10711517     -0.69846037
H       0.29519225     -1.06881929      1.76045302
H       0.31081639     -2.99170824      0.33811984
H       0.54236464     -1.50928152     -1.99770898
H       2.64796407     -1.15182043     -3.24216716
H       5.52066394      0.17279773     -1.71974255
H       4.66635528      0.83141374      1.51318363
H       5.54275901     -0.57853771      0.87299085
H       5.20875758      1.98554834     -0.28591218
H       2.47502193     -0.19335464      1.62531944
