60
CC(C)Nc1cccnc1N1CCN(C(=O)c2cc3cc(NS(C)(=O)=O)ccc3[nH]2)CC1
C      -6.63272747     -1.23434529      0.60305991
C      -5.89786646     -1.35749085     -0.73164267
C      -5.46490000     -2.80708420     -0.95954936
N      -4.69543979     -0.52188492     -0.74658690
C      -4.81728524      0.88490874     -0.77030122
C      -5.79412146      1.55185554     -1.50935919
C      -5.83716612      2.94267708     -1.50825404
C      -4.88243008      3.62973252     -0.78087176
N      -3.89256905      3.03553235     -0.08288768
C      -3.84787595      1.68326774     -0.09547951
N      -2.79498287      1.00262552      0.59277922
C      -1.70771521      0.72577177     -0.37621055
C      -0.56741904     -0.04049444      0.32159413
N      -0.09310510      0.63486402      1.54393930
C       1.09418801      0.21608501      2.16022276
O       1.18437077      0.10545645      3.38053321
C       2.22677409     -0.02882698      1.29247873
C       3.22315029     -0.97940460      1.42608365
C       4.14136527     -0.82246396      0.35288702
C       5.31016129     -1.50343343     -0.04278405
C       6.00996670     -1.06673525     -1.17222277
N       7.19144512     -1.72385768     -1.62741494
S       8.47491080     -2.02686282     -0.58494426
C       8.88233294     -0.39786534      0.01519689
O       8.03244859     -2.83558757      0.52862215
O       9.56501418     -2.45956131     -1.43493063
C       5.53265608      0.01100168     -1.92190113
C       4.37364118      0.70240777     -1.54863748
C       3.70238623      0.26069047     -0.40476471
N       2.56205706      0.73773338      0.19888212
C      -1.17843417      1.02619599      2.45629291
C      -2.29789845      1.79887571      1.73791280
H      -7.50354762     -1.89879851      0.62854450
H      -5.98051544     -1.49755396      1.44347786
H      -6.98993053     -0.21262659      0.77014434
H      -6.57382241     -1.09038401     -1.55107559
H      -6.33231983     -3.47518757     -0.98161509
H      -4.78874926     -3.15204747     -0.16878880
H      -4.93552899     -2.90810790     -1.91385416
H      -4.05774027     -0.73976359      0.02735995
H      -6.52457778      1.00701754     -2.09659178
H      -6.59790118      3.47666040     -2.06674381
H      -4.88300332      4.71533071     -0.74657965
H      -2.06476211      0.12000671     -1.21741818
H      -1.31039977      1.66635421     -0.78349103
H      -0.91823778     -1.03497454      0.62676068
H       0.24745804     -0.19797445     -0.38814890
H       3.27398950     -1.71785613      2.21776955
H       5.63747347     -2.36686329      0.52804056
H       7.50811470     -1.52153340     -2.57494218
H       9.08756004      0.25259782     -0.83734137
H       9.77748419     -0.48694574      0.63522999
H       8.05750073     -0.01381308      0.61735825
H       6.06276158      0.33795964     -2.81346088
H       4.01466810      1.54506357     -2.13089655
H       2.03897189      1.54585751     -0.10822225
H      -0.76843994      1.64279999      3.26485622
H      -1.57795530      0.10814122      2.90649591
H      -1.89267545      2.76426394      1.40508326
H      -3.11080738      1.98859391      2.44949501
