12
CCCC#N
C      -1.59972267      0.03304068      0.04184803
C      -0.22494715     -0.18811541     -0.56885629
C       0.88869106      0.17495039      0.41115991
C       2.21185064     -0.04228659     -0.18853933
N       3.25797104     -0.21325393     -0.66054034
H      -1.73995542      1.08163389      0.32312521
H      -1.73585557     -0.58420302      0.93560851
H      -2.38101972     -0.23315866     -0.67693301
H      -0.13064890     -1.23787794     -0.87322297
H      -0.13471632      0.41486375     -1.48089088
H       0.79214044      1.22457058      0.71207806
H       0.79621256     -0.43016375      1.32047887
