17
c1ccc2cnccc2c1
C      -2.15806184     -0.85799897      0.11534677
C      -2.30302631      0.52731119      0.12983141
C      -1.17527829      1.34683206      0.07128774
C       0.11097479      0.78282463     -0.00248285
C       1.27586828      1.55212523     -0.06331671
N       2.52926428      1.04554553     -0.13500071
C       2.63356720     -0.29903252     -0.14704600
C       1.54891644     -1.16045625     -0.09108242
C       0.26032074     -0.61804559     -0.01728281
C      -0.88540112     -1.42874640      0.04229815
H      -3.03674610     -1.49659426      0.16096129
H      -3.29435311      0.96982834      0.18672275
H      -1.30335530      2.42682199      0.08341400
H       1.23191697      2.63811789     -0.05581725
H       3.64810071     -0.68317634     -0.20494732
H       1.71175419     -2.23268105     -0.10509596
H      -0.79446155     -2.51267549      0.03220993
