39
Clc1ccc(COC(Cn2ccnc2)c2ccc(Cl)cc2Cl)c(Cl)c1
Cl      2.62997001      5.13439100     -3.58760977
C       2.26759333      3.69091652     -2.72442686
C       2.44426008      3.64847165     -1.34479879
C       2.14945810      2.47687298     -0.64530501
C       1.68381603      1.33261817     -1.31961025
C       1.35507067      0.10517655     -0.51240175
O       0.00712510      0.23627507     -0.06583945
C      -0.42031899     -0.87405966      0.74301581
C      -1.40092366     -0.33415855      1.79574347
N      -0.70685577      0.43709814      2.81304853
C      -0.27962626     -0.02109042      4.02705756
C       0.34439559      1.05773220      4.60975069
N       0.30519029      2.14962592      3.78086549
C      -0.34543147      1.75002938      2.71161733
C      -1.10496475     -1.91894814     -0.12674321
C      -1.77251678     -1.53141271     -1.30466405
C      -2.41362127     -2.47324915     -2.11220364
C      -2.40683891     -3.81516101     -1.74694634
Cl     -3.19847939     -4.97516754     -2.73981004
C      -1.76929900     -4.22404692     -0.57987917
C      -1.12576841     -3.28096762      0.22695465
Cl     -0.37771641     -3.85661122      1.67538964
C       1.49684877      1.40359407     -2.70948844
Cl      0.88977034      0.06535693     -3.61928924
C       1.79356179      2.57624512     -3.41033301
H       2.80401042      4.52177900     -0.80606983
H       2.27657845      2.46236225      0.43711858
H       1.48788585     -0.81562637     -1.08961688
H       2.02790373      0.04478035      0.35248250
H       0.45852579     -1.30343242      1.23933058
H      -2.14906712      0.33089878      1.34688030
H      -1.93260960     -1.14063479      2.31394690
H      -0.44245139     -1.03432259      4.36727056
H       0.82077141      1.10613696      5.58049568
H      -0.56794180      2.35676894      1.84255706
H      -1.79066534     -0.48523579     -1.61021070
H      -2.91234438     -2.15081294     -3.02327536
H      -1.77558251     -5.27403359     -0.29836481
H       1.65028747      2.62184145     -4.48663871
