54
COc1cc2c(c(OC)c1OC)-c1ccc(OC)c(=O)cc1C(NC(C)=O)CC2
C       2.80725132     -4.39865866     -1.29038831
O       2.44466781     -3.19620993     -1.95804776
C       1.79408681     -2.23823340     -1.22476175
C       1.15672466     -2.50339799     -0.00854679
C       0.55364919     -1.47588425      0.73508477
C       0.58339024     -0.14759433      0.26538421
C       1.16048292      0.10545554     -1.00292257
O       1.14571767      1.41116243     -1.44460441
C       0.53769651      1.58154178     -2.72227120
C       1.76461998     -0.93107685     -1.74384791
O       2.39314076     -0.57515895     -2.91468592
C       2.06893129     -1.39810902     -4.03339931
C      -0.03334737      0.96385720      1.09036159
C       0.89518299      1.86888433      1.47752853
C       0.88111399      2.98416720      2.22156113
C      -0.16739867      3.64761013      2.72956442
O      -0.11179324      4.75382391      3.55637351
C       1.15839630      5.26921909      3.92725533
C      -1.57918839      3.24487978      2.31368274
O      -2.40770650      4.12191302      2.14168877
C      -2.06249811      1.84242725      2.01969860
C      -1.36048741      0.87642801      1.39572792
C      -2.19686762     -0.38621192      1.07224820
N      -2.31559480     -0.51566685     -0.37489183
C      -3.27416471     -1.29934657     -0.96853497
C      -3.22724834     -1.29600105     -2.47266119
O      -4.08942385     -1.97002856     -0.34413831
C      -1.70946216     -1.67418909      1.78506675
C      -0.19959302     -1.80905109      1.99474666
H       3.47409894     -4.95926275     -1.95241432
H       1.92614147     -5.02041910     -1.10375247
H       3.35288846     -4.19518136     -0.36283216
H       1.10606432     -3.51565341      0.38216589
H      -0.19821122      0.80263315     -2.95266149
H       1.30506397      1.62868777     -3.50018039
H       0.01345597      2.54229373     -2.71478504
H       2.07962662     -0.76279855     -4.92469404
H       2.83377444     -2.16780014     -4.17062375
H       1.07111852     -1.84506169     -3.95826841
H       1.92085575      1.63589447      1.15949816
H       1.87146160      3.38991217      2.42271905
H       0.99469227      6.12786119      4.58519005
H       1.73686168      4.52482761      4.48366484
H       1.71017048      5.61990006      3.04919692
H      -3.11239968      1.69484825      2.25793921
H      -3.23315644     -0.24988853      1.41339157
H      -1.72141826      0.05961022     -0.95614256
H      -4.23991163     -1.16535915     -2.86318153
H      -2.81763310     -2.24864712     -2.81810849
H      -2.60544264     -0.48293520     -2.85729873
H      -2.06932102     -2.55768751      1.24302381
H      -2.17721731     -1.71860442      2.77764587
H       0.02711517     -2.83055924      2.32417018
H       0.14104338     -1.16316163      2.81406691
