58
CC(C)(C)OOC(C)(C)c1ccc(C(C)(C)OOC(C)(C)C)cc1
C      -7.28544346     -0.14796384      0.39309951
C      -5.88795988     -0.38225276     -0.19146527
C      -5.54048296     -1.87081823     -0.08754214
C      -5.86182098      0.09578685     -1.64702617
O      -4.99338021      0.40886445      0.60910411
O      -3.64305392      0.20696182      0.08583021
C      -2.70468241      0.39487936      1.16965112
C      -2.88562562      1.78701050      1.79804486
C      -2.95038540     -0.70179598      2.22058555
C      -1.30256585      0.33217648      0.54310851
C      -1.07175360      0.90899540     -0.71792546
C       0.19619178      0.88958350     -1.31048014
C       1.29399089      0.29952299     -0.66370107
C       2.68504008      0.28372121     -1.32156841
C       3.16544838      1.72937352     -1.53662369
C       2.62008038     -0.48719895     -2.65110517
O       3.59882206     -0.40028693     -0.43534289
O       4.92815482     -0.38547965     -1.04440295
C       5.89179191     -0.39102240      0.02243941
C       5.75646286     -1.67032720      0.85480406
C       5.74500173      0.85936962      0.89541848
C       7.26498416     -0.37330793     -0.65843847
C       1.06688854     -0.26478526      0.60093967
C      -0.20355406     -0.24596005      1.19391316
H      -8.05262583     -0.70903816     -0.15063040
H      -7.32116397     -0.44466135      1.44784105
H      -7.54757737      0.91605882      0.36267284
H      -4.55294786     -2.08304783     -0.51149635
H      -5.50694901     -2.19073399      0.95984584
H      -6.27241771     -2.49035815     -0.61648609
H      -6.61660747     -0.41833498     -2.25137986
H      -6.04353865      1.17492975     -1.70514576
H      -4.88448334     -0.08135811     -2.10929028
H      -3.85643506      1.87875670      2.29784250
H      -2.85441424      2.57404901      1.03538738
H      -2.10801357      1.99821261      2.54081310
H      -2.30008532     -0.59277554      3.09463063
H      -3.98221069     -0.68198508      2.58857203
H      -2.79407698     -1.69775930      1.78996853
H      -1.88959929      1.38390353     -1.25829816
H       0.30956970      1.34726607     -2.29083692
H       2.49339877      2.30008894     -2.18591655
H       3.24359235      2.25831196     -0.57940929
H       4.16053001      1.76034554     -1.99373460
H       1.92162676     -0.03535170     -3.36300142
H       2.31102583     -1.52560019     -2.48184519
H       3.60006808     -0.52959769     -3.13913769
H       6.55176460     -1.74724001      1.60371141
H       5.79438106     -2.55759719      0.21283380
H       4.79615335     -1.70640582      1.38071606
H       4.77947977      0.87651077      1.41255043
H       6.53276261      0.91223466      1.65433077
H       5.78959155      1.76795390      0.28475859
H       7.37298189      0.51304419     -1.29456206
H       8.08082048     -0.37691342      0.07191941
H       7.38516178     -1.24179250     -1.31649742
H       1.87977983     -0.73239609      1.15346052
H      -0.30169129     -0.69376590      2.17897247
