21
NCC(O)c1ccccc1
N       3.36040242     -0.18517304      0.11307824
C       1.98104719      0.33243129      0.18780156
C       0.97521789     -0.59534705     -0.53093290
O       1.18630703     -1.94414718     -0.09745952
C      -0.45343038     -0.16740766     -0.27476797
C      -1.04918451      0.80393419     -1.09521233
C      -2.35640780      1.23330918     -0.85707320
C      -3.08334805      0.70055209      0.20531073
C      -2.50455649     -0.26149161      1.03004673
C      -1.19745428     -0.69109571      0.79308736
H       3.45054329     -0.93760898      0.79913796
H       3.99280297      0.54379722      0.44737312
H       1.94508543      1.33393563     -0.25575833
H       1.71993871      0.43516742      1.24802721
H       1.16375321     -0.58625124     -1.61202014
H       2.10652230     -2.13241200     -0.35804137
H      -0.49736629      1.23135302     -1.92972824
H      -2.80814844      1.98236791     -1.50209352
H      -4.10163845      1.03237384      0.38910614
H      -3.07043234     -0.68180505      1.85716295
H      -0.75965342     -1.44648227      1.44295552
