28
NS(=O)(=O)c1cc2c(cc1Cl)NC(C(Cl)Cl)NS2(=O)=O
N       4.23441402      1.32274291     -0.68641521
S       4.00757196     -0.20608384     -0.01804608
O       4.53622147     -0.10041357      1.32061235
O       4.51619528     -1.12054052     -1.01152217
C       2.25772843     -0.39664816      0.08172935
C       1.40952939      0.61443067     -0.38020966
C       0.02368333      0.44226560     -0.28352130
C      -0.55190437     -0.70200432      0.27208478
C       0.31986661     -1.71691586      0.68987893
C       1.71516251     -1.56802375      0.61359830
Cl      2.67096327     -2.88655438      1.18725539
N      -1.92931258     -0.94168440      0.28651936
C      -2.83163849      0.20466046      0.20554934
C      -4.33523744     -0.21458336      0.20667016
Cl     -4.75331839     -1.06085448      1.72868328
Cl     -4.74508432     -1.27888931     -1.17681591
N      -2.50158510      0.91937079     -1.01836958
S      -1.02889754      1.70091554     -0.91885948
O      -0.61850746      1.98793546     -2.27347992
O      -1.13489728      2.72271308      0.09726277
H       4.71912406      1.22795122     -1.58161727
H       4.74134995      1.90782388     -0.01880155
H       1.80247228      1.52814291     -0.82092169
H      -0.08895201     -2.64839073      1.07957035
H      -2.21013484     -1.60515711      1.01140956
H      -2.68805559      0.85412948      1.07978409
H      -4.97624580      0.66924260      0.13210829
H      -2.56051134      0.34441919     -1.85991384
