31
O=C1Nc2ccc(Cl)cc2C(c2ccccc2)=NC1O
O      -3.18893667      2.87094797      0.22462647
C      -2.52574168      1.91099700     -0.17542590
N      -2.76412684      0.66795706      0.35845267
C      -2.08352200     -0.52062866      0.05907644
C      -2.80720377     -1.71026715      0.21770324
C      -2.23806970     -2.93904150     -0.12420700
C      -0.93714776     -2.98530120     -0.61495365
Cl     -0.24121484     -4.49655156     -1.04838221
C      -0.18707117     -1.81821842     -0.73448809
C      -0.74506557     -0.58225705     -0.36689692
C       0.15391179      0.61340124     -0.33046760
C       1.52661256      0.45436362      0.24879691
C       2.59642421      1.13147423     -0.34856434
C       3.88446720      1.00090132      0.17228002
C       4.10508177      0.20408280      1.29541933
C       3.03863229     -0.45665154      1.90555190
C       1.74778262     -0.32923471      1.38848060
N      -0.16179828      1.79194070     -0.74913900
C      -1.47972721      2.01629486     -1.31819525
O      -1.57619426      3.27634770     -1.96131019
H      -3.61080387      0.63465156      0.91350967
H      -3.83588504     -1.69296239      0.57262690
H      -2.81975673     -3.85180897     -0.01759074
H       0.83752001     -1.87759450     -1.09589774
H       2.42945764      1.76203580     -1.21934164
H       4.71377985      1.52629370     -0.29485834
H       5.10883808      0.10730649      1.70247281
H       3.21291184     -1.06373479      2.79065587
H       0.92741942     -0.83043189      1.89447219
H      -1.71966523      1.27464736     -2.08868439
H      -1.36090867      3.91104091     -1.25572201
