34
CCCC(C)C1(CC)C(=O)NC(=O)NC1=O
C       4.04019105      0.82993081      0.20120121
C       2.97279552     -0.22685419     -0.04251913
C       1.57984140      0.29009528      0.33501467
C       0.43890730     -0.71056090     -0.00508023
C       0.53609346     -1.95557881      0.89453610
C      -0.97569324     -0.01684748     -0.00118404
C      -2.15576592     -1.01449146     -0.23179156
C      -2.06094057     -1.86151307     -1.49752887
C      -1.05073816      1.01204815     -1.13541491
O      -0.34909947      0.97917189     -2.14376145
N      -2.00511317      1.98200706     -1.00563757
C      -2.40817493      2.47344433      0.19476322
O      -2.86240269      3.60761080      0.30219514
N      -2.20088980      1.68655274      1.28295123
C      -1.27488061      0.67985222      1.32898369
O      -0.79032173      0.35777664      2.41005656
H       3.85128180      1.72502923     -0.40000593
H       4.06811112      1.12295104      1.25556598
H       5.02679143      0.44132759     -0.07002002
H       2.98977616     -0.51465071     -1.09988365
H       3.22488796     -1.11597950      0.54407784
H       1.57032047      0.52523647      1.40578891
H       1.41576213      1.23726524     -0.19113020
H       0.62577218     -1.06222287     -1.02926233
H       0.48852956     -1.70171547      1.95674826
H       1.48119366     -2.48226480      0.72829422
H      -0.25315857     -2.68110894      0.68396175
H      -3.10809962     -0.46854568     -0.27648412
H      -2.25492550     -1.68144039      0.63401679
H      -1.17535170     -2.50189460     -1.49912949
H      -2.03929954     -1.23896863     -2.39664516
H      -2.93720236     -2.51435386     -1.57086465
H      -2.03066936      2.65610053     -1.75962288
H      -2.37752826      2.14259135      2.16855651
