27
Oc1ccc(Cl)cc1Cc1cc(Cl)ccc1O
O       1.09756651      1.40244443     -2.01139393
C       1.73884668      0.88010963     -0.92122752
C       2.82604749      1.55471618     -0.36412713
C       3.46673750      1.02434201      0.75604385
C       3.01495704     -0.17132528      1.30944632
Cl      3.80348667     -0.82340530      2.69252723
C       1.92809320     -0.84422950      0.75047389
C       1.27557408     -0.32646423     -0.38120506
C       0.09289497     -1.06377986     -0.96718948
C      -1.22766035     -0.70419216     -0.32533021
C      -1.70538546     -1.48988289      0.74002812
C      -2.92993211     -1.20132626      1.34569705
Cl     -3.49092641     -2.18173407      2.64392436
C      -3.70119627     -0.13090164      0.90440273
C      -3.23840371      0.66043295     -0.14535363
C      -2.00944059      0.38106425     -0.74398944
O      -1.63559213      1.22222649     -1.75249641
H       1.58846538      2.19072101     -2.30836188
H       3.18308478      2.49220442     -0.78009331
H       4.31209991      1.54802538      1.19457027
H       1.58733347     -1.77498578      1.19821261
H       0.26414341     -2.14507394     -0.86919187
H       0.03802589     -0.91139703     -2.05264421
H      -1.12306969     -2.33641602      1.09668668
H      -4.65611720      0.09429571      1.37021666
H      -3.83056205      1.50187672     -0.49544563
H      -0.66907104      1.15265480     -1.88418006
