28
O=c1cccc2n1C[C@@H]1CNC[C@H]2C1
O      -1.50953461      3.11567566     -0.12703824
C      -1.68013102      1.89964876     -0.17546455
C      -3.01330898      1.37419801     -0.56501937
C      -3.23667862      0.05632984     -0.58155518
C      -2.18731865     -0.86614232     -0.24036339
C      -0.96030678     -0.42618214      0.09004232
N      -0.69766234      0.94749387      0.12187605
C       0.57856216      1.47725988      0.61005695
C       1.69955597      0.45739740      0.84963725
C       2.46561727      0.10836527     -0.44097479
N       1.66256575     -0.59316114     -1.44664742
C       0.96894747     -1.74902351     -0.85792621
C       0.15900680     -1.40201107      0.41350821
C       1.09969429     -0.80540308      1.45858808
H      -3.77152806      2.10431157     -0.81450466
H      -4.20733265     -0.34155602     -0.85789706
H      -2.41918198     -1.92639391     -0.27885956
H       0.35171585      1.97493626      1.56304142
H       0.91674023      2.26652194     -0.07323040
H       2.41917489      0.89595254      1.55221717
H       3.33290885     -0.51515970     -0.18939447
H       2.86978111      1.02226654     -0.89165970
H       0.95188152      0.05305466     -1.79937335
H       0.30863082     -2.18157831     -1.61917028
H       1.70977882     -2.52313049     -0.62093712
H      -0.26431518     -2.32989711      0.81946246
H       0.56177169     -0.57345416      2.38629373
H       1.89096538     -1.52031926      1.71529211
