22
NS(=O)(=O)Cc1noc2ccccc12
N       3.89501778      1.14762357     -0.31642795
S       2.53979114      0.24788509      0.12353059
O       3.01236004     -1.11554577      0.17042852
O       2.02656087      0.92705904      1.29207243
C       1.45069423      0.51021162     -1.27975925
C       0.21227636     -0.29734555     -1.17721646
N      -0.00785337     -1.28542455     -2.05845035
O      -1.23711127     -1.82627293     -1.72265256
C      -1.75818872     -1.15113416     -0.66545937
C      -2.98526366     -1.40089088     -0.05690110
C      -3.32359819     -0.56987988      1.01581870
C      -2.46548296      0.44976200      1.43791092
C      -1.23556033      0.67365638      0.80032316
C      -0.87811352     -0.15591657     -0.27694944
H       4.06754532      1.87436062      0.38175152
H       4.69309918      0.51995718     -0.44287605
H       2.02083009      0.24533998     -2.17666322
H       1.21265447      1.57806235     -1.31279144
H      -3.63669473     -2.19569531     -0.39917509
H      -4.27010242     -0.72167082      1.53122435
H      -2.75224036      1.07883859      2.27881143
H      -0.58061993      1.46702001      1.14992417
