40
CCOP(=S)(OCC)SC(CCl)N1C(=O)c2ccccc2C1=O
C      -3.82233468     -3.36575347      1.11386573
C      -3.53050148     -2.66353016     -0.19626803
O      -3.34303045     -1.28196322      0.06635036
P      -2.53038477     -0.37616242     -1.01047543
S      -3.35619458     -0.34203459     -2.77609185
O      -2.61171691      1.06435838     -0.26114471
C      -3.87729092      1.60641480      0.08305540
C      -3.65069339      2.91569718      0.81147056
S      -0.51092919     -0.94060665     -0.87112432
C       0.37769529      0.65551686     -0.80147811
C       0.20989449      1.46088672     -2.09985877
Cl      1.01658151      3.05538715     -1.97750593
N       1.76826664      0.40538235     -0.44045239
C       2.72984911     -0.09170705     -1.27741493
O       2.64944908     -0.39593119     -2.45176706
C       3.95163357     -0.21540350     -0.48586631
C       5.21152670     -0.65244192     -0.84490330
C       6.19237656     -0.66064928      0.15205179
C       5.89352461     -0.23910550      1.46473336
C       4.60873252      0.19788797      1.80282654
C       3.65901972      0.19763688      0.80021631
C       2.25077982      0.58435711      0.82789123
O       1.67012471      0.97639149      1.82189626
H      -4.71326518     -2.94166996      1.58910623
H      -2.99267476     -3.23147883      1.81594597
H      -3.98209212     -4.43601835      0.95623327
H      -4.37585655     -2.78453088     -0.88043184
H      -2.63752722     -3.09366445     -0.65910033
H      -4.46577091      1.78415506     -0.82128356
H      -4.41852379      0.91058384      0.73085603
H      -4.60178613      3.37271244      1.09864516
H      -3.04830677      2.75670105      1.71195593
H      -3.09745813      3.61779703      0.17868448
H      -0.07348642      1.22283917      0.01990653
H       0.62512977      0.95357232     -2.97456062
H      -0.84147458      1.67665017     -2.30280507
H       5.42711890     -0.97474972     -1.85848591
H       7.20031517     -0.99660494     -0.08610506
H       6.67466975     -0.25506368      2.22305919
H       4.36461101      0.52414181      2.80858074
