22
CCC(=O)c1ccc(N)cc1
C       3.88150358      0.08339937      0.44182581
C       2.46266813      0.57379945      0.20053834
C       1.44382940     -0.55109889      0.27374560
O       1.76813485     -1.71643743      0.49455915
C      -0.00045423     -0.22234278      0.06654848
C      -0.44419871      1.07527802     -0.20692305
C      -1.80963385      1.32721511     -0.39146300
C      -2.74442322      0.29039663     -0.34736429
N      -4.11230119      0.57161759     -0.41144940
C      -2.30372436     -0.99142605     -0.01526544
C      -0.94206740     -1.25334803      0.16889574
H       3.97601516     -0.37597277      1.43137916
H       4.58764630      0.91740317      0.38318490
H       4.17182269     -0.66364824     -0.30436760
H       2.41284988      1.03115886     -0.79327442
H       2.21624627      1.32353163      0.95983088
H       0.24246852      1.91354895     -0.27025661
H      -2.13814900      2.34815726     -0.57070156
H      -4.68601706     -0.22509714     -0.67104097
H      -4.34180443      1.40178130     -0.94857296
H      -3.01622215     -1.80380735      0.10312248
H      -0.62418917     -2.26689163      0.40704875
