19
CCc1ccc(O)cc1
C      -2.71689911      0.28527360     -0.06740815
C      -1.80589242      0.19317051      1.14707199
C      -0.36285313      0.00803933      0.75251404
C       0.16521829     -1.27826695      0.57477964
C       1.49701457     -1.44842449      0.19376728
C       2.30136584     -0.33515172     -0.01475496
O       3.59620576     -0.54693652     -0.38640335
C       1.79559108      0.95004639      0.14972174
C       0.46251957      1.12000229      0.53109734
H      -2.66154288     -0.62401311     -0.67552722
H      -3.75629598      0.41917507      0.24855169
H      -2.44426672      1.13288868     -0.70529137
H      -2.12333567     -0.63964078      1.78636779
H      -1.90813528      1.09914155      1.75682491
H      -0.45779980     -2.15573047      0.73127588
H       1.90432182     -2.44612926      0.05877845
H       4.03004717      0.31506770     -0.49326536
H       2.41598163      1.82505658     -0.01408564
H       0.06875526      2.12643160      0.65445634
