56
CC[C@@]12CCCN3CC[C@]4(c5cccc(OC)c5N(C(C)=O)[C@@H]4CC1)[C@H]32
C      -2.57013943      0.93335252      2.85692734
C      -1.84801568      0.00455751      1.88591622
C      -2.17398925      0.20695744      0.37110227
C      -3.70276375     -0.01795651      0.16568878
C      -4.11571476     -0.17857442     -1.29901410
C      -3.24984009     -1.20459348     -2.02322593
N      -1.84692837     -0.83648252     -1.87791368
C      -0.94030009     -1.73369937     -2.58636179
C       0.41426976     -1.46975956     -1.93677929
C       0.10663661     -0.63322372     -0.66340462
C       1.06070691     -1.04120494      0.43239500
C       0.99773177     -2.16599853      1.24765523
C       2.01678317     -2.37575738      2.17470982
C       3.08015106     -1.46851139      2.27787880
C       3.15719380     -0.35128819      1.43468795
O       4.11175858      0.60013893      1.65710139
C       5.42835128      0.08857700      1.45280466
C       2.14394833     -0.14802668      0.50328034
N       1.95947981      0.89505497     -0.44120312
C       2.96287888      1.67430411     -0.99086992
C       2.50651398      2.82359719     -1.85675777
O       4.17125621      1.46957758     -0.87665084
C       0.53184439      0.85234130     -0.87236875
C      -0.28057195      1.86859049     -0.04527161
C      -1.78237323      1.62352921     -0.11117320
C      -1.40298780     -0.85024439     -0.46791111
H      -2.31738146      1.98192620      2.67920302
H      -3.65580660      0.81819671      2.80049344
H      -2.27107348      0.69564528      3.88354505
H      -0.77635340      0.11626032      2.07039497
H      -2.09151190     -1.02845499      2.16789395
H      -4.27697909      0.80962707      0.59873229
H      -4.00851930     -0.92647575      0.70198818
H      -5.16676676     -0.48646480     -1.34840508
H      -4.05307040      0.78898296     -1.81155163
H      -3.52839906     -1.21363667     -3.08350537
H      -3.44450574     -2.20816994     -1.62390744
H      -1.21539487     -2.78688692     -2.44760261
H      -0.91888030     -1.52097439     -3.65981967
H       1.08069130     -0.93926264     -2.62722093
H       0.89195064     -2.42956426     -1.70361976
H       0.17977011     -2.87527977      1.17236680
H       1.98040188     -3.23825562      2.83597606
H       3.83073340     -1.62271779      3.04821638
H       5.76883071     -0.45855993      2.33761306
H       6.10004464      0.93998822      1.30701027
H       5.49010211     -0.54947585      0.56347616
H       3.37651084      3.42213388     -2.14619446
H       1.83023085      3.47766743     -1.30469262
H       2.03268296      2.45272371     -2.76830597
H       0.45270541      1.13119962     -1.92931562
H       0.05004185      1.87534279      1.00013861
H      -0.08050527      2.88148049     -0.41152466
H      -2.29985940      2.38956740      0.47721292
H      -2.10564135      1.78617929     -1.14639478
H      -1.58992844     -1.84799920     -0.04344258
