12
NC(=O)N=NC(N)=O
N      -2.81053133      0.08207485      0.27287219
C      -1.57700510      0.65518136      0.30639412
O      -1.47095919      1.87261560      0.42376995
N      -0.56554297     -0.26642794      0.19749417
N       0.56554299      0.26642819      0.22894679
C       1.57700503     -0.65518116      0.12004619
N       2.81053114     -0.08207470      0.15356584
O       1.47095898     -1.87261551      0.00267202
H      -2.90456085     -0.91707353      0.17667332
H      -3.62141365      0.67691548      0.34606560
H       2.90456148      0.91707340      0.24976687
H       3.62141346     -0.67691604      0.08037405
