23
CCCCCOC(C)=O
C      -3.50590599      0.75837844      0.02237335
C      -2.56904378     -0.38922211     -0.31951372
C      -1.17387435     -0.16636096      0.26451074
C      -0.23515292     -1.32582424     -0.08204390
C       1.15549944     -1.14222108      0.52010819
O       1.76676236      0.01911647     -0.05605554
C       3.01050259      0.29174139      0.42436682
C       3.55583858      1.52069716     -0.23594884
O       3.60559689     -0.36169848      1.26926033
H      -4.49743085      0.57829206     -0.40465820
H      -3.61694135      0.86457266      1.10622147
H      -3.12985963      1.70478361     -0.37918077
H      -2.50500787     -0.48866493     -1.40933376
H      -2.99007049     -1.32437328      0.06767929
H      -1.24415097     -0.06526836      1.35440157
H      -0.76395580      0.77470556     -0.12122691
H      -0.14993630     -1.39910024     -1.17307990
H      -0.66126747     -2.26744593      0.28300026
H       1.08383858     -1.02474280      1.60786455
H       1.76719716     -2.02235659      0.29015878
H       4.55330649      1.73241466      0.15974618
H       2.90816109      2.37465889     -0.02225248
H       3.63589458      1.35791810     -1.31364837
