24
CCCCCCCS
C      -3.81503856      0.89601598      0.56600171
C      -2.72618966      0.41992365     -0.38228416
C      -1.37509254      0.31387579      0.32444845
C      -0.28253901     -0.16522470     -0.63293565
C       1.07049517     -0.27187901      0.07471748
C       2.16193741     -0.75234448     -0.88749386
C       3.51815915     -0.97094058     -0.21710318
S       4.29307873      0.57591660      0.33831732
H      -3.57799973      1.88520319      0.97054814
H      -4.77237806      0.96465165      0.03997759
H      -3.93670483      0.20196305      1.40375091
H      -3.00910422     -0.55605001     -0.79354723
H      -2.65235016      1.11790916     -1.22434598
H      -1.09891458      1.29168843      0.73757818
H      -1.45540776     -0.38227494      1.16824017
H      -0.20156681      0.53139201     -1.47625566
H      -0.55963384     -1.14276110     -1.04599905
H       0.98946371     -0.97167000      0.91535217
H       1.33419516      0.70652580      0.49156595
H       2.26156952     -0.04932968     -1.72403872
H       1.84572943     -1.70853499     -1.32383503
H       4.20185728     -1.44754122     -0.92708454
H       3.41678377     -1.63948843      0.64384483
H       4.36965042      1.15297384     -0.86988501
