45
OC[C@H]1O[C@H](O[C@]2(CO)O[C@H](CO)[C@@H](O)[C@@H]2O)[C@H](O)[C@@H](O)[C@@H]1O
O      -2.45145524      3.54381337      1.15177122
C      -1.89813304      2.37690383      1.75099885
C      -1.75932027      1.21739637      0.75459632
O      -0.99761318      0.17168196      1.37490251
C      -0.76181965     -0.94100184      0.49920686
O      -0.03342098     -0.52771018     -0.65312956
C       1.34483270     -0.91240364     -0.66775494
C       1.49832966     -2.37296824     -1.18808421
O       0.69346037     -3.31923831     -0.46020596
O       1.95676278     -0.81190887      0.63371351
C       3.08130935      0.08325076      0.57347764
C       2.71578304      1.38441653      1.30389893
O       1.70685328      2.12216912      0.62072224
C       3.43996061      0.24476239     -0.90313071
O       4.33672474     -0.80405780     -1.30117639
C       2.11568083      0.04592455     -1.62037086
O       1.47456920      1.31234300     -1.81827181
C      -2.10416852     -1.56843715      0.06231138
O      -1.95704351     -2.67219442     -0.84610907
C      -2.97581224     -0.50512705     -0.60686905
O      -4.27713924     -1.04328632     -0.90281006
C      -3.13964966      0.69924912      0.32133602
O      -3.90093098      1.72270465     -0.33284212
H      -3.17259888      3.24023888      0.55769770
H      -2.52556968      2.08817255      2.60159783
H      -0.91820699      2.64187035      2.16193141
H      -1.22173190      1.60456132     -0.12096537
H      -0.21651348     -1.69005786      1.08146183
H       2.53821877     -2.70413765     -1.10666190
H       1.17453356     -2.44071176     -2.23167652
H       1.08579695     -4.19505956     -0.63641749
H       3.89692730     -0.39964295      1.12362078
H       3.59720543      2.02620026      1.39733565
H       2.33459853      1.15189557      2.30396751
H       1.40418393      2.82177617      1.23047479
H       3.91865373      1.20403147     -1.12424254
H       5.22048197     -0.57397413     -0.96253245
H       2.24313887     -0.38878811     -2.61718278
H       1.21845867      1.63533817     -0.92474086
H      -2.62890984     -1.95692432      0.94376359
H      -1.05635992     -3.03614031     -0.69596620
H      -2.55757158     -0.19806523     -1.57311215
H      -4.09246901     -1.91110369     -1.31857550
H      -3.71899964      0.39209827      1.20160288
H      -4.63102687      1.24214077     -0.77768577
