34
CN1C(=O)C(O)N=C(c2ccccc2)c2cc(Cl)ccc21
C      -3.37727760     -1.20708876      1.00011610
N      -2.32184365     -0.82308725      0.07189251
C      -2.03917772     -1.72035468     -0.96816496
O      -2.54776589     -2.84618144     -1.02330610
C      -1.08612368     -1.22256007     -2.09330642
O      -1.18142993     -2.06809388     -3.22937680
N       0.25647023     -1.20667710     -1.53344213
C       0.53622513     -0.30015239     -0.65864197
C       1.90847342     -0.32974488     -0.05827250
C       2.12210033      0.00286440      1.28563907
C       3.41327582     -0.03575195      1.81648956
C       4.48890557     -0.41513669      1.01353724
C       4.27729121     -0.76490969     -0.31962561
C       2.98892375     -0.72781027     -0.85484713
C      -0.41493256      0.76482920     -0.22042097
C       0.08284758      2.07981081     -0.16217440
C      -0.71019628      3.10436771      0.34048272
Cl     -0.09132485      4.70548521      0.42495767
C      -1.99730933      2.83528546      0.78618680
C      -2.50414826      1.53383199      0.70666102
C      -1.73757807      0.47808788      0.17764228
H      -4.33560380     -0.83664445      0.62288877
H      -3.17581511     -0.80389510      1.99770035
H      -3.44342062     -2.29541846      1.09388288
H      -1.40763514     -0.23462154     -2.44055475
H      -0.95748328     -2.94810076     -2.87740561
H       1.29641629      0.27589328      1.93663225
H       3.58071339      0.22124422      2.85967377
H       5.49291727     -0.44880803      1.42988048
H       5.11384846     -1.07255856     -0.94215117
H       2.83070228     -1.00989800     -1.89377361
H       1.09256604      2.30401694     -0.50059953
H      -2.62134291      3.63308281      1.18263968
H      -3.53126809      1.37869405      1.02916053
