55
COc1cc2c(cc1OC)[C@@]13CCN4CC5=CCO[C@H]6CC(=O)N2[C@H]1[C@H]6[C@H]5C[C@H]43
C       4.95525269      3.25103424     -0.38446883
O       4.90881156      1.84464363     -0.58355251
C       3.72198000      1.20417203     -0.31305098
C       2.55796483      1.85566078      0.11544640
C       1.42120518      1.10136251      0.35352872
C       1.41705240     -0.28408027      0.17206951
C       2.56478325     -0.94610155     -0.24896132
C       3.72544386     -0.20231235     -0.49761429
O       4.91483638     -0.74717524     -0.91867717
C       4.97166030     -2.15480543     -1.09600238
C       0.08025855     -0.87713163      0.54242555
C       0.18823296     -1.63496201      1.87192413
C      -1.09893175     -2.43906737      1.91207570
N      -1.38951178     -2.78406030      0.51286750
C      -2.82126125     -2.70862844      0.20163967
C      -3.26508965     -1.28858809     -0.06428604
C      -4.30580854     -0.72938458      0.57743544
C      -4.69857904      0.69917359      0.41403897
O      -3.66473280      1.50400346      0.96446945
C      -2.65037809      1.90652280      0.03356451
C      -1.82983718      2.99590572      0.77058437
C      -0.31195221      2.85174306      0.72226352
O       0.40318007      3.85148467      0.68924550
N       0.14243259      1.54507382      0.72933712
C      -0.79215433      0.40969222      0.69281323
C      -1.75662845      0.74462176     -0.45367463
C      -2.42105882     -0.50403664     -1.04955425
C      -1.28071167     -1.39218476     -1.57161519
C      -0.52373551     -1.96102815     -0.37230637
H       5.96637579      3.58961359     -0.63070651
H       4.76517738      3.50921546      0.66248239
H       4.26053578      3.76792881     -1.05458609
H       2.52990387      2.92759602      0.26032777
H       2.54273536     -2.02322633     -0.36249132
H       4.27651556     -2.48317599     -1.87568468
H       4.78702252     -2.67989154     -0.15303916
H       5.98363166     -2.41000621     -1.42506507
H       1.04837445     -2.31774662      1.87165583
H       0.29039627     -0.97731709      2.74218793
H      -1.89057481     -1.83096560      2.36623408
H      -0.98627950     -3.34242991      2.51990138
H      -3.40698573     -3.17511261      1.00411295
H      -3.02588968     -3.31623959     -0.68905111
H      -4.87926560     -1.30779466      1.29737313
H      -4.92662283      0.96227111     -0.62501655
H      -5.60434099      0.88554032      1.00066630
H      -3.14562282      2.37073159     -0.82927235
H      -2.07640422      3.96629979      0.32112062
H      -2.11232424      3.06081247      1.82888804
H      -1.33264473      0.39970292      1.64868355
H      -1.16988114      1.17567809     -1.28260725
H      -3.04406412     -0.21377758     -1.90531223
H      -0.60031467     -0.82180841     -2.21639263
H      -1.67675375     -2.20216176     -2.19802304
H       0.26457662     -2.62528377     -0.74702215
