17
CCCC(=O)OC
C       2.86567303     -0.12280487     -0.01262437
C       1.55293874      0.21008998      0.67731724
C       0.35352678     -0.20155356     -0.17254224
C      -0.95697241      0.12515907      0.50462480
O      -1.07971438      0.65462938      1.59968149
O      -1.98908888     -0.26351198     -0.29790747
C      -3.28101899      0.00087637      0.25035811
H       2.94941536     -1.19833502     -0.19850480
H       2.94851705      0.39943113     -0.97113203
H       3.71060223      0.18044666      0.61350595
H       1.51537001     -0.29793595      1.64844873
H       1.51447589      1.28673456      0.88214803
H       0.38240804      0.32516971     -1.13298668
H       0.38331861     -1.28143777     -0.35608437
H      -3.41898370     -0.54653427      1.18804942
H      -4.03055814     -0.34609462     -0.46627211
H      -3.41990925      1.07567118      0.40359441
