22
CCCC(=O)CCC
C      -3.12010247      0.91509234     -0.28523737
C      -2.56279786     -0.31943882     -0.98023429
C      -1.33123885     -0.88334246     -0.27564438
C      -0.07592297     -0.04258350     -0.46023326
O      -0.01489636      0.87816530     -1.27328735
C       1.11071445     -0.44069926      0.40383970
C       2.33360686      0.43959284      0.16305465
C       3.50202800      0.02261376      1.04116048
H      -3.39311775      0.69104291      0.75097769
H      -4.01907243      1.26454590     -0.80294909
H      -2.39591481      1.73502951     -0.27911326
H      -3.34304286     -1.08964277     -0.99365382
H      -2.33359125     -0.07838805     -2.02455525
H      -1.52838451     -0.98813092      0.79688936
H      -1.11062507     -1.87749354     -0.68082009
H       0.80203949     -0.36942699      1.45272764
H       1.35292342     -1.48579926      0.18110140
H       2.08528836      1.48836882      0.36522943
H       2.63430278      0.38256820     -0.88993000
H       4.36693574      0.66611598      0.85209574
H       3.79690242     -1.01158390      0.83665995
H       3.24396569      0.10339390      2.10192213
