7
OB(O)O
O       1.41884579     -0.36941634      0.53055536
B       0.00890621     -0.08730192      0.24776563
O      -0.78144093     -1.24320833     -0.23515158
O      -0.30396349      1.17402229     -0.45407923
H       1.88584413     -0.32456069     -0.33487288
H      -1.70998093     -1.04869139      0.08369758
H      -0.51821079      1.89915638      0.16208512
