15
O=C(O)CSCC(=O)O
O      -3.25200305      1.40799560     -0.80303914
C      -2.55866952      0.87812850      0.05544486
O      -3.07713934      0.45330177      1.23032166
C      -1.07427220      0.62270573     -0.12830875
S      -0.25756529      0.11845309      1.43335000
C       1.47325767      0.06965742      0.85523565
C       1.74624887     -1.06499601     -0.10532271
O       0.95127671     -1.84664300     -0.59880056
O       3.05584067     -1.14333859     -0.42504867
H      -2.37050677      0.06926506      1.79525158
H      -0.61365660      1.55196614     -0.47514210
H      -0.96401472     -0.16374487     -0.87788683
H       1.72408080      1.02145941      0.37857482
H       2.10647497     -0.06855208      1.73677611
H       3.11064778     -1.90565817     -1.04088674
