27
C#CC(C)(O)CCC=C(C)C
C       1.94736737      2.51827905      1.47755171
C       2.10741411      1.52163530      0.82600893
C       2.30864355      0.30093241      0.02023197
C       3.38067326     -0.57640476      0.67396619
O       2.78245833      0.67116839     -1.27399066
C       1.00138473     -0.49659200     -0.13677455
C      -0.08621729      0.24577761     -0.92426333
C      -1.33087354     -0.59356565     -1.04838374
C      -2.46907105     -0.48439174     -0.33566572
C      -2.69608661      0.49593094      0.78185253
C      -3.64066004     -1.38858534     -0.61608099
H       1.79977890      3.40321371      2.05289338
H       3.58778013     -1.46181755      0.06189648
H       3.08101218     -0.90726061      1.67457293
H       4.33043616     -0.03551330      0.76648009
H       3.52118235      1.28904993     -1.13848530
H       0.61342365     -0.77381417      0.85299352
H       1.21911450     -1.43403868     -0.66745718
H      -0.30936669      1.21379349     -0.46655557
H       0.26823785      0.46983027     -1.93782610
H      -1.27426995     -1.35560133     -1.82591259
H      -3.03748495     -0.03044431      1.67979483
H      -1.79689025      1.04892738      1.06310127
H      -3.46385485      1.22191253      0.49548405
H      -4.52007980     -0.79516928     -0.88698613
H      -3.88155933     -1.98397518      0.27067006
H      -3.44249275     -2.08327711     -1.43911609
