9
O=C[O-].O=C[O-].[Ca+2]
O      -1.04357451     -0.72142741     -0.05956214
C       0.00342327     -0.02284385     -0.00816267
O       1.19636292     -0.29814749     -0.30475695
O      -0.98388420     -0.80313000     -0.00264896
C       0.00581047     -0.02379356     -0.00054289
O       1.24321880     -0.25883238     -0.02158149
Ca      0.00000000      0.00000000      0.00000000
H      -0.15621168      1.04241875      0.37248176
H      -0.26514507      1.08575594      0.02477334
