34
CCCCOCCOCCOC(C)=O
C       3.66623376     -1.46017774      0.35313653
C       3.94486359      0.02532296      0.18542452
C       3.93726873      0.48652647     -1.27536605
C       2.59742043      0.31260289     -1.98563079
O       1.58909989      1.02459088     -1.27417203
C       0.30600302      0.89316870     -1.89592704
C      -0.74766322      1.57728990     -1.02682329
O      -1.05002797      0.74248891      0.09703682
C      -1.94128819      1.38918373      1.01071805
C      -2.24931507      0.43831298      2.16705701
O      -3.01716151     -0.69858908      1.72802135
C      -4.34408855     -0.47297736      1.54126725
C      -5.01778325     -1.72876435      1.08032332
O      -4.91560493      0.59396543      1.71721043
H       4.36015592     -2.06035228     -0.24371395
H       2.64419188     -1.71209299      0.05516759
H       3.78517191     -1.74830427      1.40259307
H       4.93069545      0.24607300      0.61213700
H       3.21614636      0.60000847      0.76852930
H       4.20311983      1.55094152     -1.28690398
H       4.71476526     -0.04625827     -1.83510314
H       2.33042850     -0.74756803     -2.05326330
H       2.67335361      0.71343708     -3.00306893
H       0.06550825     -0.16909667     -2.01704433
H       0.34545403      1.37827473     -2.87711894
H      -1.66546811      1.72145168     -1.60689779
H      -0.37675434      2.54604445     -0.67347921
H      -2.85447059      1.67085200      0.47678945
H      -1.45691279      2.29055328      1.40188085
H      -1.31727396      0.03858348      2.58055345
H      -2.77667662      0.95660271      2.97623537
H      -4.90165496     -2.51052548      1.83512925
H      -6.08531240     -1.53661152      0.93958883
H      -4.59242397     -2.04838829      0.12571332
