52
CC12CCC(=O)C=C1CCC1C2CCC2(C)C1CCC2(C)O
C       2.31702658     -1.34045740      1.40369704
C       2.18212486     -0.08616846      0.50986401
C       2.82534017      1.13534375      1.23344430
C       4.34624558      1.09545526      1.26985061
C       4.90322378      0.95004654     -0.12123007
O       5.99533395      1.41118651     -0.44380583
C       4.13494834      0.14619604     -1.09924647
C       2.92392967     -0.36112640     -0.80681208
C       2.24073709     -1.27662332     -1.79645531
C       0.80223626     -0.85245098     -2.06740668
C       0.00385557     -0.75028468     -0.75921362
C       0.67364439      0.26277621      0.20420679
C      -0.19060748      0.51753553      1.46131214
C      -1.41261014     -0.38898063      1.56734116
C      -2.32748846     -0.45123125      0.30661232
C      -3.09560792     -1.78917930      0.41399042
C      -1.48576551     -0.42240905     -1.01064582
C      -1.74014471      0.95180528     -1.66596924
C      -2.49234493      1.78750521     -0.64554803
C      -3.29995998      0.77125555      0.16058156
C      -4.62087615      0.47574238     -0.56834595
O      -3.63594602      1.34728757      1.41789026
H       1.78501054     -2.20316542      0.99090754
H       1.92538695     -1.16862171      2.41113171
H       3.36508560     -1.64148547      1.51719209
H       2.45581414      1.21994055      2.26192182
H       2.52508442      2.06090005      0.72210810
H       4.71940310      2.03310072      1.69648523
H       4.71634112      0.26966417      1.88534390
H       4.64322149     -0.04698766     -2.03775383
H       2.25412204     -2.30020303     -1.40221932
H       2.78352166     -1.30750219     -2.74922778
H       0.33252257     -1.58587086     -2.73384238
H       0.80547677      0.10451940     -2.60184343
H       0.02886469     -1.74727425     -0.29875641
H       0.70064191      1.22445538     -0.33083613
H       0.38945922      0.40317385      2.38184940
H      -0.50888244      1.56507317      1.47349202
H      -1.99331246     -0.11364818      2.45554531
H      -1.03281364     -1.39644066      1.79017853
H      -2.40472466     -2.63615514      0.49958501
H      -3.74673306     -1.79764726      1.29507872
H      -3.71325219     -1.98571398     -0.46829386
H      -1.87097593     -1.18072983     -1.70682019
H      -0.83812071      1.46793931     -2.00352963
H      -2.36716191      0.81143556     -2.55547626
H      -1.80093864      2.34853021     -0.01051287
H      -3.12323422      2.54152855     -1.12992488
H      -5.26288900     -0.18379033      0.02606675
H      -5.19663054      1.39869214     -0.70766210
H      -4.46542300      0.02149096     -1.55158650
H      -4.15215875      0.69156763      1.91728795
