31
CNC(=O)Oc1cccc2c1OC(C)(C)C2
C       4.17427463      0.29717914     -2.05321718
N       3.56343833      0.69172330     -0.81429785
C       2.58014267     -0.05990431     -0.22808357
O       2.24428299     -1.17432087     -0.60717856
O       2.05676908      0.64288287      0.84366254
C       0.95242059      0.01438732      1.40689250
C       1.09245312     -0.68122752      2.60736583
C      -0.03040361     -1.28575344      3.19476552
C      -1.29119484     -1.18558143      2.59445122
C      -1.40331423     -0.47892757      1.40734448
C      -0.29817393      0.11974244      0.82809537
O      -0.57894464      0.80443235     -0.32533376
C      -1.94301890      0.42090994     -0.65956486
C      -2.67693707      1.68084484     -1.12088509
C      -1.87565886     -0.59371915     -1.80883518
C      -2.60834221     -0.18255033      0.59915779
H       4.37350475     -0.77783375     -2.05445077
H       5.10855863      0.85033255     -2.17269115
H       3.49279714      0.54052508     -2.87268197
H       3.61646277      1.65200595     -0.50499230
H       2.06547366     -0.76176943      3.08236293
H       0.08160944     -1.83460389      4.12694830
H      -2.15853655     -1.64768663      3.05549763
H      -3.71699045      1.46579514     -1.38633950
H      -2.66801674      2.44603444     -0.33628048
H      -2.17947070      2.12605917     -1.99003975
H      -2.87587232     -0.89866885     -2.13318508
H      -1.34400984     -0.17089429     -2.66893490
H      -1.31962380     -1.49073114     -1.51351482
H      -3.20066235     -1.07522832      0.37729011
H      -3.23301680      0.54654639      1.12667256
