21
Cc1ncc(CO)c(C=O)c1O
C      -3.08791345     -0.99073741     -0.62376101
C      -1.63360940     -0.65866484     -0.46523925
N      -0.76408308     -1.33622547     -1.25128940
C       0.55399117     -1.05520981     -1.12768750
C       1.08522408     -0.11714562     -0.24862454
C       2.56702584      0.12858410     -0.18024344
O       3.28948063     -0.68870840     -1.08902856
C       0.16060653      0.57191826      0.55563800
C       0.62096609      1.59203306      1.52575013
O      -0.17708340      2.20039151      2.23356914
C      -1.21242827      0.30108488      0.44889674
O      -2.15907097      0.94076065      1.20615612
H      -3.64891544     -0.10437347     -0.93599064
H      -3.49759600     -1.36622792      0.31911622
H      -3.22889628     -1.76494158     -1.38512809
H       1.19179845     -1.63768972     -1.79020791
H       2.93299419     -0.09350162      0.82742913
H       2.78117491      1.17240442     -0.43171489
H       4.23248949     -0.47268197     -0.98555020
H       1.69973269      1.79552246      1.60031092
H      -1.70588778      1.58340850      1.79759903
