38
CN(Cc1cc(Br)cc(Br)c1N)C1CCCCC1
C      -0.25034827      3.10363427     -0.25544903
N       0.05731331      1.66931056     -0.35163421
C       1.13638789      1.35003530      0.61046195
C       1.86886095      0.04794845      0.34729004
C       1.97742992     -0.89164960      1.38943551
C       2.69314217     -2.07306853      1.20532420
Br      2.81481400     -3.32223026      2.61933571
C       3.32982127     -2.33421265     -0.00205874
C       3.23497094     -1.40508564     -1.03944151
Br      4.13503900     -1.79930993     -2.66842143
C       2.47397643     -0.22779913     -0.89962852
N       2.47006434      0.76137602     -1.90844206
C      -1.18704186      0.86742031     -0.23633166
C      -1.73236534      0.65561325      1.19053467
C      -3.06694977     -0.09158582      1.17185231
C      -2.96262700     -1.41616127      0.42230746
C      -2.41286297     -1.22307912     -0.98748623
C      -1.07413867     -0.48333323     -0.97206204
H      -0.62927165      3.38342943      0.73336460
H      -0.99097838      3.39599340     -1.00831492
H       0.64279106      3.70396503     -0.46367193
H       0.77247195      1.39858983      1.64381005
H       1.91447425      2.12548153      0.55419741
H       1.50593241     -0.69234345      2.34925962
H       3.90185176     -3.24808170     -0.13427687
H       1.60734674      1.31286967     -1.86490215
H       2.62713197      0.37202353     -2.83411164
H      -1.96438304      1.41399215     -0.79129114
H      -1.87452699      1.61765806      1.69533191
H      -1.02505703      0.07387885      1.79265158
H      -3.39876928     -0.27616607      2.19988265
H      -3.83071547      0.53752968      0.69834141
H      -2.30827872     -2.09890388      0.97834399
H      -3.94937235     -1.88997590      0.37168563
H      -3.13615669     -0.65938418     -1.58940298
H      -2.28784415     -2.19882260     -1.47051144
H      -0.74213410     -0.32428523     -2.00518037
H      -0.33999861     -1.13527113     -0.49079185
