54
O=c1[nH]c2ccccc2n1CCCN1CCC(n2c(=O)[nH]c3cc(Cl)ccc32)CC1
O       4.04339836     -3.86701199     -1.16091879
C       4.46965571     -2.90857812     -0.53885472
N       5.57209560     -2.92164787      0.33102560
C       5.72377561     -1.65663927      0.88716923
C       6.65110250     -1.21562545      1.80258379
C       6.55514199      0.12141641      2.20121134
C       5.54884382      0.96502906      1.68230091
C       4.61648327      0.49083021      0.75191325
C       4.72830128     -0.82779807      0.36832789
N       3.96652339     -1.59215361     -0.52588656
C       2.78569597     -1.14724855     -1.22437149
C       1.52383075     -1.37159314     -0.39134516
C       0.24840269     -0.96010286     -1.13513009
N       0.22321255      0.45176833     -1.54785640
C      -0.84228449      0.71887693     -2.52809119
C      -2.24974700      0.70988743     -1.92970583
C      -2.33589564      1.67341836     -0.74149811
N      -3.65123447      1.70969793     -0.13023036
C      -4.47363374      2.86155387     -0.11293266
O      -4.23505496      3.96151390     -0.58193744
N      -5.64908398      2.50524391      0.56132153
C      -5.56314705      1.17634684      0.95356689
C      -6.48918066      0.42408470      1.64012278
C      -6.13878846     -0.89948896      1.90632830
Cl     -7.24048330     -1.90982140      2.76161182
C      -4.90028158     -1.42847379      1.49017109
C      -3.97762880     -0.63684607      0.79237708
C      -4.32978758      0.67062059      0.53197692
C      -1.20970469      1.43818842      0.27058155
C       0.14755443      1.40772103     -0.43314163
H       6.12373197     -3.74171555      0.51910099
H       7.41945815     -1.86699801      2.20025029
H       7.26554712      0.52013335      2.92277869
H       5.49977154      2.00128633      2.01119430
H       3.84712377      1.14167731      0.35492451
H       2.71110367     -1.72252115     -2.15495279
H       2.91073826     -0.09492702     -1.49973876
H       1.60196267     -0.84752990      0.56787845
H       1.44510697     -2.43714203     -0.13863472
H      -0.61903238     -1.21348807     -0.51542592
H       0.18115416     -1.59510844     -2.02847658
H      -0.78672943      0.00127181     -3.35592623
H      -0.65392852      1.69949769     -2.98483350
H      -2.51791063     -0.31022013     -1.63759204
H      -2.97423766      1.00594406     -2.69857327
H      -2.16693946      2.67833029     -1.15418819
H      -6.41264153      3.14296376      0.71739944
H      -7.43866510      0.83672622      1.95716019
H      -4.65319265     -2.46488164      1.71168903
H      -3.03096255     -1.05823969      0.48035292
H      -1.21342735      2.24100287      1.01845040
H      -1.35828887      0.50733092      0.82644637
H       0.36219567      2.40959778     -0.82884749
H       0.93998066      1.22384047      0.29983155
