42
CC(=O)c1ccc(S(=O)(=O)NC(=O)NC2CCCCC2)cc1
C      -6.25401315      1.77239537      1.02064099
C      -5.66457822      1.42394131     -0.32096623
O      -6.06873650      1.95842774     -1.35179796
C      -4.56710277      0.41309236     -0.39011846
C      -4.02754736     -0.18284096      0.75746089
C      -2.99732127     -1.12164062      0.64319893
C      -2.49622967     -1.45426190     -0.61830455
S      -1.20955035     -2.66952542     -0.76503949
O      -1.15152467     -3.44923662      0.45057952
O      -1.37785878     -3.31765264     -2.05050020
N       0.17416134     -1.76388001     -0.91085941
C       0.64483160     -0.87665021      0.03932865
O       0.06190893     -0.62896811      1.08110594
N       1.82725200     -0.30577488     -0.33469969
C       2.57879459      0.55870176      0.56863162
C       3.37433752     -0.26226490      1.59412375
C       4.56721779     -0.98329202      0.96753429
C       5.47434394     -0.01630982      0.21346000
C       4.70317034      0.78487389     -0.83047244
C       3.49766796      1.50032012     -0.22034881
C      -3.03758421     -0.88008660     -1.77096363
C      -4.06765178      0.05643300     -1.65282574
H      -7.07196641      2.48582750      0.87903815
H      -6.66583055      0.87969711      1.49845515
H      -5.49813518      2.24239885      1.65495460
H      -4.38448676      0.06588814      1.75288932
H      -2.57849899     -1.57554675      1.54061485
H       0.61385239     -1.85635445     -1.81560530
H       2.32083209     -0.73469646     -1.10113644
H       1.84622247      1.16858534      1.11221437
H       2.72773459     -0.99585130      2.08968634
H       3.74343233      0.41236512      2.37730119
H       5.14226409     -1.48851099      1.75190541
H       4.21192632     -1.76323016      0.28327644
H       6.28361179     -0.57264888     -0.27275201
H       5.94453190      0.67246383      0.92619463
H       5.36997393      1.52216515     -1.29214148
H       4.37191009      0.11572797     -1.63340303
H       2.93391649      2.00403654     -1.01480694
H       3.86272206      2.28458917      0.45524692
H      -2.67265648     -1.15505486     -2.75803871
H      -4.48534346      0.50571903     -2.55306143
