12
CNNC
C       1.82512612      0.05062860     -0.10933569
N       0.43608448      0.22438250     -0.53492669
N      -0.43608547     -0.22438302      0.53492566
C      -1.82512689     -0.05062735      0.10933491
H       2.49331462      0.37833652     -0.91190742
H       2.04877079      0.65829816      0.77413084
H       2.05037572     -0.99863616      0.11044814
H       0.29477400     -0.34511839     -1.37563855
H      -0.29477340      0.34511501      1.37563928
H      -2.05037793      0.99864004     -0.11043608
H      -2.49331448     -0.37834650      0.91190318
H      -2.04876756     -0.65828942     -0.77413757
