20
O=C1NC(=O)C2CC=CCC12
O      -2.68217421     -1.73160658      0.12225539
C      -1.93283351     -0.77433507      0.02742530
N      -2.19613607      0.48106489      0.47514410
C      -1.20050297      1.36193655      0.18965172
O      -1.14124979      2.51189237      0.58767031
C      -0.26353048      0.68351703     -0.78036162
C       1.18072533      1.16048336     -0.71251885
C       2.07708569      0.33872719      0.15708116
C       1.71830693     -0.82057147      0.71858717
C       0.37381722     -1.45046736      0.55120092
C      -0.52302644     -0.80357495     -0.51189221
H      -3.01351242      0.71904543      1.01367627
H      -0.66021367      0.94241130     -1.77369272
H       1.23032083      2.20459665     -0.38288911
H       1.60608995      1.13497996     -1.72398411
H       3.08081653      0.72370765      0.32852198
H       2.43352477     -1.34891339      1.34665653
H      -0.11265569     -1.46030642      1.53543391
H       0.51624082     -2.50508181      0.28262356
H      -0.49109282     -1.36750531     -1.45058967
