53
C[C@H](O)C(=O)Nc1c(I)c(C(=O)NC(CO)CO)c(I)c(C(=O)NC(CO)CO)c1I
C      -1.35872853      6.28361859      0.58390463
C      -0.25240316      5.47385924     -0.07187531
O      -0.06668130      5.90909421     -1.41709751
C      -0.53497762      3.96121620      0.01448385
O      -1.03097720      3.42783077      1.00240720
N      -0.07945772      3.27990333     -1.11293953
C      -0.06858903      1.86234767     -1.15995790
C      -1.25106550      1.09644227     -1.05422650
I      -3.17657341      2.04846229     -1.24490089
C      -1.17728528     -0.31114964     -0.99879661
C      -2.41738630     -1.09997997     -0.86709235
O      -2.93958403     -1.60319651     -1.85261206
N      -2.89321050     -1.22754500      0.41270059
C      -4.12981526     -1.94988128      0.74201112
C      -3.96865522     -3.46918213      0.53817032
O      -4.11522755     -3.84319588     -0.82929019
C      -4.52262212     -1.62649675      2.19229742
O      -3.45778766     -1.94037716      3.09210712
C       0.06458143     -0.96740179     -1.10165842
I       0.17477227     -3.09417102     -0.97601332
C       1.23343822     -0.20487885     -1.28220596
C       2.54026670     -0.87024387     -1.44006620
O       2.92175487     -1.22336420     -2.54744054
N       3.24936100     -1.05202484     -0.28016992
C       4.56146641     -1.71449376     -0.24251111
C       4.43242901     -3.23303206     -0.47204168
O       4.28379477     -3.54794702     -1.85649151
C       5.23002562     -1.41646770      1.10745153
O       4.37322916     -1.81870954      2.17764408
C       1.16675832      1.20157210     -1.32952657
I       2.94074103      2.37456744     -1.60096443
H      -2.31926963      6.10291370      0.08834985
H      -1.15244094      7.35577918      0.50076107
H      -1.47017437      6.02780227      1.64213613
H       0.69231363      5.64936270      0.45440760
H      -0.93722748      5.87508566     -1.85501192
H       0.70512756      3.76094986     -1.55232102
H      -2.36549668     -0.85854589      1.19875608
H      -4.90863034     -1.58007798      0.06381069
H      -4.74061863     -4.01507094      1.08982817
H      -2.99170939     -3.81976654      0.88693407
H      -3.66281306     -3.16342993     -1.37660998
H      -4.72022493     -0.55389327      2.29356029
H      -5.42483677     -2.16448579      2.50149916
H      -3.50332490     -2.89372983      3.28439136
H       2.79518778     -0.93312901      0.62017375
H       5.16590963     -1.28346489     -1.05010150
H       5.33464673     -3.75261485     -0.13416655
H       3.57770168     -3.65115348      0.06919879
H       3.73073145     -2.84915262     -2.26822075
H       6.18606043     -1.94169533      1.20013159
H       5.40903736     -0.34102859      1.21276534
H       4.86845944     -1.67582958      3.00442843
