21
Nc1cc([N+](=O)[O-])cc(S(=O)(=O)O)c1O
N      -1.66430982     -2.17647154      0.66646557
C      -1.03842286     -0.93668128      0.40359567
C      -1.77555724      0.18816702      0.03491840
C      -1.10476289      1.35822263     -0.36234918
N      -1.88702459      2.54804669     -0.72457956
O      -1.26949225      3.54166732     -1.12836777
O      -3.11849571      2.48129859     -0.60660000
C       0.29466088      1.39879100     -0.43398494
C       1.02012776      0.24660375     -0.11487786
S       2.78371461      0.27329305     -0.21945138
O       3.21033687      1.61864691      0.09889777
O       3.12854184     -0.36503657     -1.47046479
O       3.28481386     -0.69198665      0.97545058
C       0.35936587     -0.90744396      0.29157087
O       1.04010607     -2.05417746      0.61784086
H      -1.78287602     -2.70163836     -0.20392058
H      -2.59497390     -2.04698543      1.06802482
H      -2.86282217      0.15464789      0.05931026
H       0.81865624      2.30268079     -0.74376769
H       2.82918503     -1.56079128      0.87976526
H       0.32922841     -2.67085313      0.91252368
