60
NCCCC[C@H](N[C@@H](CCc1ccccc1)C(=O)O)C(=O)N1CCC[C@H]1C(=O)O
N      -0.48302045      5.20338119     -1.18772910
C      -1.80741911      4.84495660     -0.70025902
C      -2.39202058      3.64925577     -1.45475062
C      -1.56212301      2.35877386     -1.40275154
C      -1.35369336      1.82687482      0.02305111
C      -0.71426616      0.42257068      0.11475607
N       0.56614697      0.38795517     -0.62437726
C       1.56012919     -0.62653544     -0.18746340
C       2.08587097     -0.37233996      1.23822527
C       3.27361700     -1.26513909      1.63236518
C       4.51480884     -1.03799461      0.80672744
C       4.97415010     -2.02360157     -0.07618200
C       6.11838335     -1.80706534     -0.84529967
C       6.81415734     -0.60525326     -0.73912602
C       6.36879657      0.38001026      0.13823915
C       5.22619650      0.16482136      0.90915370
C       1.01675042     -2.04756655     -0.34024210
O       0.37778155     -2.67611539      0.49145853
O       1.24632502     -2.56343980     -1.56463195
C      -1.69970163     -0.63424306     -0.44031641
O      -1.68791949     -0.97274078     -1.63153842
N      -2.65433754     -1.15948403      0.39678198
C      -2.73365129     -0.95283702      1.83572659
C      -3.97627449     -1.71570388      2.25988900
C      -3.97677915     -2.90390855      1.30591176
C      -3.49611244     -2.29659888     -0.01678390
C      -4.66125197     -1.88394494     -0.93562415
O      -5.81715012     -2.26280047     -0.80168356
O      -4.28688795     -1.12952393     -1.99797635
H      -0.17707993      6.06763603     -0.74409912
H      -0.52167596      5.39133013     -2.18872113
H      -1.75612079      4.63440290      0.37280777
H      -2.47785398      5.70368591     -0.82443717
H      -3.39389076      3.44357769     -1.05847457
H      -2.53154850      3.92500231     -2.50710944
H      -0.59375796      2.52488784     -1.88723000
H      -2.08706000      1.60970920     -2.00526538
H      -2.32397098      1.81464096      0.53443401
H      -0.71657616      2.52902325      0.57605355
H      -0.53303281      0.22566045      1.17326246
H       0.35485597      0.22241121     -1.61451618
H       2.40659303     -0.53041245     -0.87767838
H       1.29415789     -0.55279279      1.97500193
H       2.37111269      0.68262215      1.33699198
H       2.98071954     -2.32082295      1.59147007
H       3.52761719     -1.07316999      2.68280386
H       4.44450313     -2.96723322     -0.17520121
H       6.46587527     -2.57656569     -1.52871809
H       7.70280464     -0.43563721     -1.34031581
H       6.90979279      1.31854834      0.22196003
H       4.89474000      0.94456921      1.59150386
H       0.75912223     -3.41102977     -1.57295472
H      -2.78624367      0.11085458      2.08034982
H      -1.83482772     -1.38301663      2.29064416
H      -4.87219111     -1.10508035      2.09788020
H      -3.94696735     -2.01485117      3.31026133
H      -3.24553626     -3.64451191      1.65511387
H      -4.95164581     -3.39650168      1.25429166
H      -2.89490928     -3.02558713     -0.57358236
H      -3.30751041     -1.01311240     -2.05207733
