16
Cc1cccc(O)c1
C       2.16297645     -0.36805814      0.79391277
C       0.80164403     -0.00154240      0.28114278
C       0.55210944      1.28953237     -0.20398547
C      -0.70506420      1.62484186     -0.71115905
C      -1.71931713      0.67003910     -0.74709858
C      -1.46922722     -0.61428280     -0.28010038
O      -2.48694137     -1.52054092     -0.33994326
C      -0.21905722     -0.96062746      0.22812775
H       2.09393658     -1.13958329      1.56798113
H       2.78290479     -0.74339294     -0.02603142
H       2.65772195      0.49914959      1.24378673
H       1.33641631      2.04320901     -0.18901587
H      -0.89287729      2.62927031     -1.08078696
H      -2.69874179      0.92459649     -1.14111601
H      -2.16862899     -2.36426760      0.01979314
H      -0.02785434     -1.96834318      0.58449269
