16
OCc1c(Cl)c(Cl)c(Cl)c(Cl)c1Cl
O      -2.34480610     -0.74112401      1.24424717
C      -1.85467467     -0.88132557     -0.07878648
C      -0.48071833     -0.25822216     -0.12771654
C       0.67027923     -1.01878794      0.18014056
Cl      0.50418757     -2.70946404      0.57414265
C       1.95111719     -0.42918171      0.17617085
Cl      3.35775926     -1.39280235      0.54183332
C       2.09430925      0.93560501     -0.12567722
Cl      3.67766207      1.66579985     -0.13837945
C       0.95945624      1.71079750     -0.41798561
Cl      1.13428420      3.40539994     -0.79037224
C      -0.31935259      1.11681245     -0.41279809
Cl     -1.72165168      2.09384288     -0.75946754
H      -3.22926744     -1.14543738      1.26424112
H      -1.84510534     -1.94028181     -0.35258891
H      -2.55347885     -0.41163065     -0.77700358
