19
CN1C(=O)OC(C)(C)C1=O
C       2.72062662     -0.36752541     -0.29467294
N       1.35931081     -0.11021493      0.09917757
C       0.95689164      0.06129285      1.37602695
O       1.66744400      0.06904033      2.36845438
O      -0.39771947      0.21396109      1.43049288
C      -0.93369958      0.12477672      0.10189938
C      -1.55233092      1.46216742     -0.27678990
C      -1.93019185     -1.02195191      0.03824539
C       0.29132120     -0.16293410     -0.73317257
O       0.30272204     -0.40206950     -1.93109626
H       3.40861804      0.19284497      0.34446075
H       2.91750739     -1.43701498     -0.17368069
H       2.87107399     -0.09337302     -1.34233493
H      -1.94928081      1.44669344     -1.29717181
H      -2.36296060      1.72522013      0.41161386
H      -0.81324337      2.26950230     -0.21518749
H      -2.75354127     -0.86239248      0.74310670
H      -2.34682030     -1.13830411     -0.96764237
H      -1.45572755     -1.96971880      0.31827111
