16
COc1c(Cl)cc(Cl)cc1Cl
C       2.60559776     -0.11410920      0.16568391
O       1.57407450      0.06249332      1.13900672
C       0.33769466      0.05109439      0.54226868
C      -0.38014329     -1.14714241      0.42739709
Cl      0.26723058     -2.64709759      0.98862879
C      -1.65425586     -1.15432343     -0.14311317
C      -2.21862974      0.04155240     -0.58066318
Cl     -3.78895666      0.03403805     -1.28353442
C      -1.52988969      1.24477947     -0.44661576
C      -0.25588461      1.24988735      0.12415684
Cl      0.54795736      2.76830682      0.30354475
H       2.60702796      0.69826062     -0.56855186
H       3.56551674     -0.09750576      0.69028985
H       2.51488733     -1.07917347     -0.34369984
H      -2.20655162     -2.08595107     -0.23788654
H      -1.98567541      2.17489050     -0.77691186
