34
CC(C)C1(C)N=C(c2ncccc2C(=O)O)NC1=O
C       3.18673989      0.69741472      1.25135579
C       2.71285580     -0.40054713      0.29095694
C       2.69421722      0.16495262     -1.13745733
C       1.35888506     -1.02351799      0.71196486
C       1.34680439     -1.56450479      2.14366411
N       0.25308652     -0.01627467      0.58704261
C      -0.60674308     -0.55569043     -0.22251835
C      -1.88091954      0.04216547     -0.69016886
N      -2.44834965     -0.62988798     -1.74046998
C      -3.56569728     -0.09195952     -2.27897823
C      -4.14930755      1.08206719     -1.82958930
C      -3.56476800      1.74167690     -0.75152145
C      -2.41812882      1.20528054     -0.15894899
C      -1.85484394      1.89033789      1.00130448
O      -1.46578109      3.04092700      1.02956613
O      -1.95503788      1.11702203      2.09508101
N      -0.28209839     -1.77611512     -0.70593430
C       0.93178228     -2.14410900     -0.23394268
O       1.54048971     -3.16158016     -0.51505002
H       2.45561320      1.50915256      1.32558422
H       3.36336677      0.30065527      2.25559464
H       4.13317895      1.12994581      0.90834869
H       3.47048279     -1.19612742      0.30677649
H       2.42539426     -0.60241108     -1.86985148
H       3.68553116      0.54110377     -1.41389158
H       1.98676666      0.99505674     -1.23461153
H       0.42227648     -2.11650016      2.35217814
H       2.18167608     -2.25373563      2.31079754
H       1.40670765     -0.75841647      2.88223976
H      -3.99234531     -0.64282619     -3.11381572
H      -5.04324888      1.47317196     -2.30490649
H      -4.00268837      2.66107771     -0.36914999
H      -1.50220128      1.63061593      2.79673735
H      -0.82369582     -2.28842038     -1.38655306
