13
Nc1[nH]c(=O)ncc1F
N       2.06211951      0.02493159      0.33026526
C       0.69880243     -0.02875119      0.15495470
N       0.00505157      1.13122837     -0.03428711
C      -1.35841169      1.22108020     -0.21343380
O      -1.86604737      2.32923476     -0.35402881
N      -2.09189831      0.05873821     -0.23045079
C      -1.45357102     -1.05031196     -0.05256038
C      -0.00776418     -1.16610578      0.15561784
F       0.51721123     -2.39286217      0.31444724
H       2.50656723      0.73902842     -0.23973285
H       2.51268511     -0.88283643      0.21927449
H       0.48529283      2.01772119      0.00611038
H      -2.01003734     -2.00109522     -0.05617617
