38
CC=C(C(=CC)c1ccc(O)cc1)c1ccc(O)cc1
C       0.60531352     -3.31416777     -0.90968690
C       1.17487162     -2.15378000     -0.15606077
C       0.53171943     -1.03543935      0.24218431
C      -0.89222049     -0.78578294     -0.00168116
C      -1.88698171     -1.44375136      0.63113540
C      -1.75714275     -2.50480138      1.67811333
C      -1.31038564      0.26007606     -0.96312604
C      -1.64825583      1.54358768     -0.51294810
C      -2.02900589      2.53000193     -1.42400980
C      -2.06903778      2.23428012     -2.78165745
O      -2.44644064      3.22728284     -3.63661830
C      -1.73205567      0.96697096     -3.24773352
C      -1.35022717     -0.02025126     -2.33581137
C       1.35829841     -0.01802260      0.93116147
C       2.12973473      0.88881446      0.19173600
C       2.89690956      1.85458130      0.84500091
C       2.89034842      1.91490835      2.23373309
O       3.65411776      2.87378753      2.83093726
C       2.12658886      1.02618078      2.98452629
C       1.35807027      0.05988193      2.33057831
H      -0.43361696     -3.17021128     -1.21536997
H       0.65835098     -4.21690964     -0.29342433
H       1.19449766     -3.48541653     -1.81625690
H       2.23703809     -2.25356241      0.06804353
H      -2.91884774     -1.19089007      0.38681739
H      -2.17496954     -3.44496222      1.30521512
H      -0.72620282     -2.68912409      1.98912805
H      -2.32193967     -2.21034332      2.56841252
H      -1.60683358      1.78085738      0.54742483
H      -2.28835002      3.52523296     -1.07514276
H      -2.41698583      2.88187952     -4.54359474
H      -1.75797282      0.72963836     -4.30615315
H      -1.08255477     -1.00984527     -2.69773404
H       2.12781493      0.85112849     -0.89499239
H       3.49264421      2.55877960      0.27171486
H       3.54230515      2.80314728      3.79285469
H       2.11402691      1.06913866      4.06861532
H       0.75737680     -0.63289473      2.91466900
