32
O=C(/C=C/c1ccccc1)OCc1ccccc1
O       0.21192635     -1.89770860     -1.84461015
C       0.17593406     -1.01955698     -0.99912084
C      -1.04989894     -0.46830948     -0.38779424
C      -2.25053551     -0.94697970     -0.74708634
C      -3.52631802     -0.45576907     -0.20889213
C      -4.64977251     -0.44063820     -1.04627850
C      -5.88873810     -0.00519234     -0.56925160
C      -6.02006411      0.40899262      0.75409050
C      -4.91490936      0.38293853      1.60181657
C      -3.67527682     -0.05203432      1.12476184
O       1.23711198     -0.38015237     -0.45433523
C       2.49399925     -0.82651919     -0.96678936
C       3.57986415     -0.04369992     -0.27533119
C       3.98757444      1.20081072     -0.77622286
C       4.98106873      1.93450807     -0.12578807
C       5.57009156      1.43603503      1.03472901
C       5.16349582      0.20614064      1.54889368
C       4.17005702     -0.52917871      0.90004547
H      -0.92411069      0.32958948      0.33328880
H      -2.32328560     -1.73293021     -1.49764211
H      -4.56933316     -0.76107143     -2.08292438
H      -6.75047978      0.00821205     -1.23156030
H      -6.98407080      0.74612707      1.12604726
H      -5.01774803      0.69549979      2.63781769
H      -2.83491034     -0.08176917      1.81361590
H       2.54474733     -0.65788931     -2.04976958
H       2.62370948     -1.89890649     -0.77455112
H       3.52984889      1.60648333     -1.67582143
H       5.29285778      2.89702168     -0.52285738
H       6.34254366      2.00851943      1.54136012
H       5.61786722     -0.17933968      2.45789189
H       3.85675403     -1.48323329      1.31825570
