14
C=CC(=O)NCO
C       2.49281774     -1.14655564     -0.91982749
C       1.44346494     -0.31776062     -0.98898770
C       0.35719040     -0.39250630      0.02096008
O       0.38086181     -1.16799253      0.96699081
N      -0.66462394      0.48489289     -0.23070196
C      -1.87376497      0.40358321      0.51484340
O      -2.52625833      1.63101132      0.30232416
H       3.29261554     -1.09641640     -1.65050406
H       2.57704566     -1.89155524     -0.13254210
H       1.37431933      0.42228862     -1.77566037
H      -0.72565651      0.94482148     -1.12606749
H      -1.68409991      0.24732086      1.58110301
H      -2.48509635     -0.41370290      0.12259730
H      -1.95881543      2.29257125      0.73194782
