28
O=C(c1ccccc1)C(O)c1ccccc1
O       1.37757526     -2.07764926      1.68808322
C       0.89004534     -1.47505919      0.72611667
C       1.69021667     -0.41619139      0.03958021
C       2.83986427      0.06238076      0.68524220
C       3.62817800      1.04879673      0.08984459
C       3.27642201      1.56144477     -1.15648075
C       2.14020428      1.08627559     -1.80928209
C       1.34885272      0.09759208     -1.21685540
C      -0.51591296     -1.83605345      0.22468086
O      -1.04472147     -2.92159788      0.99091642
C      -1.51422714     -0.70342929      0.31168089
C      -1.63856175      0.06855296      1.47810649
C      -2.56123001      1.11397958      1.54406855
C      -3.38030399      1.39235019      0.45220584
C      -3.28554501      0.61965041     -0.70306125
C      -2.36310072     -0.42607133     -0.77155702
H       3.12782485     -0.32978273      1.65930011
H       4.51577805      1.41537146      0.59977919
H       3.88927006      2.33061273     -1.62048433
H       1.86961474      1.48674555     -2.78373343
H       0.47911046     -0.25040083     -1.76432721
H      -0.41685692     -2.20518378     -0.80208083
H      -0.32276303     -3.19747933      1.59145117
H      -1.02379427     -0.14694609      2.35033623
H      -2.64695631      1.70463874      2.45255158
H      -4.10248278      2.20262845      0.50741665
H      -3.93794223      0.82519811     -1.54779950
H      -2.31855813     -1.03037355     -1.67503380
