21
Cc1ccc2nc3sc(=O)sc3nc2c1
C      -3.73025901      0.27218155      0.15077967
C      -2.31004082     -0.07552123     -0.18418479
C      -2.00919858     -1.24194747     -0.88640342
C      -0.67993745     -1.56839142     -1.16360400
C       0.36584327     -0.75841419     -0.74464991
N       1.63475188     -1.11275184     -1.03454274
C       2.59299075     -0.27578954     -0.58891663
S       4.29897730     -0.61566203     -0.89678083
C       4.90673616      0.81385260     -0.07234726
O       6.10021457      1.06342124      0.00585488
S       3.68113798      1.85997289      0.63201143
C       2.30559419      0.87576910      0.12217651
N       1.04546260      1.24863771      0.42300839
C       0.06976433      0.42604250     -0.01447972
C      -1.25726567      0.73870212      0.25395402
H      -3.86609345      1.35793523      0.19400796
H      -4.00222433     -0.15810095      1.11948119
H      -4.41671592     -0.11064495     -0.61173728
H      -2.80265981     -1.90554908     -1.22474833
H      -0.45576876     -2.47764847     -1.71702589
H      -1.47130924      1.64390624      0.81958021
