17
O=C(O)c1cccc([N+](=O)[O-])c1
O      -3.30034715      0.34785194      0.82831291
C      -2.37970825     -0.35967239      0.46581221
O      -2.55237489     -1.66959469      0.22319857
C      -0.98174655      0.08285974      0.24195724
C      -0.67302403      1.43322237      0.46221726
C       0.62744017      1.90369485      0.26663591
C       1.63001253      1.02793755     -0.15078820
C       1.32189130     -0.32231440     -0.37116233
N       2.37785037     -1.24374961     -0.81060917
O       3.51604528     -0.78094202     -0.97078704
O       2.06851184     -2.42901246     -0.99519370
C       0.01930643     -0.80234962     -0.17715580
H      -3.50314333     -1.82579452      0.40661442
H      -1.44886069      2.12536074      0.78834813
H       0.85697302      2.95321198      0.44020101
H       2.63874907      1.40978308     -0.29885422
H      -0.21757512     -1.85049254     -0.34874721
