16
CCCC(C)=O
C      -2.46461474     -0.13213751      0.05828054
C      -1.15887451      0.63412909     -0.07605531
C       0.04838078     -0.28483896      0.08588333
C       1.36666522      0.45754078     -0.04425081
C       2.61383707     -0.37511669      0.10252086
O       1.43369852      1.66717646     -0.25691160
H      -2.54239912     -0.60516029      1.04242321
H      -2.54187391     -0.91249366     -0.70553435
H      -3.31583023      0.54542300     -0.06110704
H      -1.12722161      1.42986256      0.67778939
H      -1.12670132      1.12500457     -1.05609700
H       0.02592864     -0.76027276      1.07279352
H       0.02645326     -1.06840037     -0.67967771
H       2.63304059     -1.14561106     -0.67211508
H       2.63251393     -0.83517293      1.09352612
H       3.49699746      0.26006777     -0.00889479
