52
O=C1c2ccccc2-c2ccc3c4ccc5c6c(ccc(c7ccc1c2c73)c64)C(=O)c1ccccc1-5
O       5.56671048     -2.83291036      0.46107763
C       5.00144790     -1.74821493      0.36534273
C       5.78431107     -0.50084134      0.27501834
C       7.18631881     -0.58505524      0.30119049
C       7.95561022      0.56905150      0.21823730
C       7.32404767      1.80100625      0.10965358
C       5.92490008      1.87847940      0.08406672
C       5.11327960      0.72843833      0.16610259
C       3.62606488      0.76506064      0.14261748
C       2.91738495      1.96196611      0.03580688
C       1.52259454      1.98426808      0.01475198
C       0.73538883      0.81710070      0.09851383
C      -0.70096767      0.84505871      0.07641794
C      -1.43921778      2.04192317     -0.03078975
C      -2.83380724      2.07391655     -0.05263038
C      -3.59146527      0.90555002      0.03162727
C      -2.88640664     -0.31827602      0.14057505
C      -3.59013805     -1.52790606      0.22892055
C      -2.92405847     -2.74212489      0.33655146
C      -1.53543817     -2.76789929      0.35780218
C      -0.75111035     -1.59401270      0.27346164
C       0.68451241     -1.62195487      0.29553914
C       1.41960637     -2.82541687      0.40324530
C       2.80817290     -2.85370054      0.42469681
C       3.52398585     -1.66638106      0.33832309
C       2.87090479     -0.43034075      0.22910185
C       1.42838212     -0.41214341      0.20772516
C      -1.44429341     -0.35622826      0.16355258
C      -5.06979900     -1.55217724      0.21047331
O      -5.67951307     -2.61400080      0.28813612
C      -5.80038705     -0.27533944      0.09687573
C      -7.20475351     -0.30492272      0.07989126
C      -7.92564011      0.87819570     -0.02597174
C      -7.24357274      2.08457608     -0.11435725
C      -5.84234588      2.10753741     -0.09687900
C      -5.07899838      0.92683440      0.00937347
H       7.67611897     -1.55330187      0.38644216
H       9.04038694      0.50575980      0.23833713
H       7.91775469      2.71011813      0.04414010
H       5.49658288      2.87253441     -0.00243045
H       3.42027400      2.92164897     -0.03505361
H       1.07071239      2.96831173     -0.07125601
H      -0.94696343      3.00758959     -0.10228308
H      -3.29656562      3.05239478     -0.13834058
H      -3.47953508     -3.67580606      0.40457631
H      -1.08517612     -3.75247803      0.44383516
H       0.92894015     -3.79167613      0.47480769
H       3.32454771     -3.80824574      0.50920810
H      -7.73425339     -1.25332384      0.14946937
H      -9.01216412      0.85717703     -0.03926354
H      -7.79915599      3.01606185     -0.19754005
H      -5.37321469      3.08411913     -0.16957529
