32
O=C(O)CCCCCCCCC(=O)O
O      -3.95073415      2.33509715      1.73659241
C      -4.57582601      1.68418576      0.91796276
O      -5.88137257      1.93622148      0.69623487
C      -4.06934006      0.56035327      0.05507083
C      -2.59092809      0.27085463      0.31231548
C      -2.08783760     -0.86836674     -0.57611784
C      -0.64329769     -1.28123837     -0.27977748
C       0.38041299     -0.19065238     -0.60296434
C       1.81142386     -0.70003154     -0.41102061
C       2.83686982      0.39309325     -0.72804740
C       4.27733672     -0.09677735     -0.58369369
C       4.69181931     -0.29034583      0.85086160
O       4.11528661      0.09729746      1.85181061
O       5.85993596     -0.95571905      0.94969744
H      -6.08569100      2.67434336      1.30807828
H      -4.21551153      0.84194904     -0.99358509
H      -4.66608336     -0.33243472      0.27224831
H      -2.44458459      0.01032783      1.36789650
H      -2.00880780      1.18086331      0.12667109
H      -2.72977956     -1.74608930     -0.43019336
H      -2.17923632     -0.58301730     -1.63122917
H      -0.55302011     -1.57342429      0.77354379
H      -0.41538165     -2.17408104     -0.87529649
H       0.24638004      0.14475137     -1.63839831
H       0.22032036      0.67843337      0.04478738
H       1.93773744     -1.04729553      0.62086368
H       1.98329858     -1.56348203     -1.06520001
H       2.68772150      0.72986593     -1.76134763
H       2.66564273      1.26185970     -0.08090501
H       4.95415137      0.64691145     -1.01908066
H       4.40545954     -1.04185519     -1.12289997
H       6.02363526     -1.00159769      1.91512202
