40
CNCC[C@@H](Oc1ccccc1C)c1ccccc1
C      -2.99268098     -3.74733899     -1.13761026
N      -2.98806504     -2.29122266     -1.17821603
C      -1.80294278     -1.75056271     -0.50627706
C      -1.82372301     -0.22034032     -0.56379695
C      -0.62966318      0.38937475      0.19531200
O       0.57415440     -0.04070304     -0.45993259
C       1.68156873     -0.27649161      0.31193487
C       1.94021166      0.35301709      1.53277283
C       3.10274220      0.05750884      2.24813523
C       4.01826438     -0.86126673      1.74426761
C       3.77940278     -1.47723547      0.51692150
C       2.61949873     -1.18200909     -0.21552583
C       2.38104187     -1.85961355     -1.53642704
C      -0.75166571      1.90646929      0.19511442
C      -1.41009221      2.55517439      1.25235112
C      -1.54352424      3.94478304      1.26059292
C      -1.02619643      4.70180360      0.21156910
C      -0.37754803      4.07085692     -0.84774876
C      -0.24356284      2.68160048     -0.85833603
H      -2.11637203     -4.16065308     -1.64738554
H      -3.01794735     -4.12009489     -0.10848349
H      -3.88130048     -4.12339871     -1.65395427
H      -3.83160859     -1.93794778     -0.72768305
H      -0.89962060     -2.12709526     -0.99846768
H      -1.78288867     -2.07808119      0.54011451
H      -2.76404402      0.15228476     -0.13644800
H      -1.79810480      0.09437550     -1.61598937
H      -0.66042095      0.01047734      1.22623392
H       1.26674392      1.09781097      1.94313071
H       3.29634469      0.55376677      3.19554883
H       4.92311540     -1.09046788      2.30087857
H       4.50757130     -2.18662437      0.13025846
H       3.26761359     -2.40931399     -1.86997000
H       1.55473745     -2.57185842     -1.45018152
H       2.14694370     -1.12174099     -2.31074200
H      -1.82472605      1.98074273      2.07771024
H      -2.05299378      4.43730956      2.08469676
H      -1.12998813      5.78355701      0.21768472
H       0.02502631      4.65930481     -1.66808540
H       0.26469877      2.20384286     -1.69396744
