12
Clc1ccc(Cl)cc1
Cl     -3.10181281      0.13289709      0.20020685
C      -1.38684940      0.05941952      0.08951441
C      -0.64280463      1.23937039      0.07387015
C       0.75018183      1.17968792     -0.01604000
C       1.38684935     -0.05941947     -0.08951453
Cl      3.10181250     -0.13289693     -0.20020883
C       0.64280466     -1.23937033     -0.07386999
C      -0.75018183     -1.17968798      0.01604071
H      -1.13910725      2.20466542      0.13112828
H       1.33013282      2.09887072     -0.02824750
H       1.13910745     -2.20466529     -0.13112846
H      -1.33013269     -2.09887104      0.02824891
