8
C#CCO
C       1.59306400     -0.26844190     -0.74475545
C       0.56559990     -0.27666026     -0.12271333
C      -0.68724479     -0.28262068      0.63493925
O      -1.39144788      0.93162872      0.41601815
H       2.50164434     -0.26232535     -1.30192323
H      -1.33073765     -1.11025528      0.32318833
H      -0.49850475     -0.38285390      1.70797472
H      -0.75237317      1.65152864      0.55198654
