53
CCCC[Sn](CCCC)(CCCC)CCCC
C       4.31709282     -1.59229075     -0.76999139
C       3.29628912     -2.68465210     -0.62001584
C       1.90981447     -2.08716557     -0.84060209
C       1.72568643     -1.01530988      0.21251261
Sn     -0.22237703     -0.13416155     -0.05179317
C      -0.36950506      1.47487837      1.38674294
C       0.62263033      2.53976195      0.92477767
C       0.61850339      3.73031257      1.85356296
C       0.99739394      3.34404784      3.26566121
C      -1.76048455     -1.55412332      0.18351206
C      -2.33625503     -1.62643348      1.55880344
C      -1.25454145     -1.99358204      2.55425699
C      -0.62642951     -3.31694049      2.25706729
C      -0.31087758      0.78058161     -2.00430952
C      -1.79092894      0.90713184     -2.34999607
C      -1.97252715      1.54225857     -3.71142004
C      -3.44999359      1.63709765     -3.98886100
H       4.41719153     -0.98828447      0.13538361
H       5.29313134     -2.07988176     -1.00876962
H       4.04446470     -0.92403317     -1.61439281
H       3.45396330     -3.45337405     -1.38776540
H       3.38824132     -3.13452181      0.38241688
H       1.88935704     -1.59378757     -1.81660457
H       1.11062567     -2.82113403     -0.73165237
H       1.81421946     -1.41652191      1.23146792
H       2.48497134     -0.22481704      0.04895511
H      -0.02996506      1.13354878      2.38610336
H      -1.39617284      1.83754260      1.37403163
H       1.63306361      2.09104639      0.84209659
H       0.36274623      2.91719972     -0.08645538
H      -0.33304254      4.25240077      1.77698614
H       1.41227230      4.41658171      1.49208459
H       1.08166153      4.31142518      3.83560373
H       0.20922373      2.70366486      3.67584985
H       1.99134406      2.85118814      3.20323240
H      -2.58077444     -1.33497720     -0.53629651
H      -1.38805284     -2.57194419     -0.08382706
H      -3.05035604     -2.50154354      1.56079375
H      -2.92441769     -0.76147792      1.87011493
H      -1.74682605     -2.06492804      3.54268791
H      -0.46676810     -1.22522871      2.53958048
H      -1.39544588     -4.12175313      2.17532699
H       0.02021623     -3.58434444      3.12035378
H      -0.05013691     -3.32655874      1.30934465
H       0.16707648      1.76894051     -2.01102536
H       0.21953200      0.14872431     -2.72633456
H      -2.28267380      1.54722487     -1.60900170
H      -2.19748864     -0.11741445     -2.32917031
H      -1.47135420      2.51594143     -3.77915290
H      -1.52217865      0.83494150     -4.45757057
H      -3.99460179      0.76802108     -3.56851354
H      -3.87786031      2.55426050     -3.52797457
H      -3.67867673      1.64246256     -5.08781510
