25
CCCCC(C=O)CC
C       3.35192171     -0.05941651      0.70852827
C       2.72476956      0.77369774     -0.39854208
C       1.36630362      0.24505110     -0.86578128
C       0.28066418      0.32748192      0.21479593
C      -1.10897867     -0.05899857     -0.31970417
C      -1.12112797     -1.53445780     -0.66506477
O      -1.34142656     -1.95880875     -1.79531263
C      -2.18808248      0.22502132      0.73614713
C      -3.60082134      0.04768471      0.19380700
H       3.43302745     -1.10996546      0.41221849
H       4.35883282      0.30855209      0.93051765
H       2.76870682     -0.00366503      1.63225434
H       2.62606616      1.81239165     -0.06239625
H       3.40729219      0.78236907     -1.25679472
H       1.48002461     -0.78981199     -1.20944464
H       1.05129265      0.83494015     -1.73542158
H       0.54527998     -0.32384813      1.05644368
H       0.24637475      1.35412493      0.60029807
H      -1.32587692      0.51437998     -1.22920042
H      -0.91669637     -2.22903280      0.16843540
H      -2.05594846     -0.43168803      1.60493587
H      -2.08720139      1.25639498      1.09529216
H      -3.78662109     -0.98682392     -0.11058587
H      -4.33425921      0.30642746      0.96420567
H      -3.77351605      0.69799988     -0.66963125
