26
CCCCCC(=O)OCC
C      -4.36778596      0.89324608      0.27811315
C      -2.96531919      0.62036763      0.79784469
C      -2.10036746     -0.06663561     -0.25858319
C      -0.69128588     -0.33927504      0.26769838
C       0.17144842     -1.02366438     -0.78570550
C       1.54571725     -1.31426895     -0.24194471
O       1.89577583     -2.40121906      0.19668264
O       2.32198352     -0.19704061     -0.29311948
C       3.64621572     -0.37927333      0.22182589
C       4.38516213      0.93948880      0.10453337
H      -4.87036734     -0.03795326     -0.00227053
H      -4.34066325      1.54712587     -0.59940700
H      -4.96890267      1.38472281      1.04948901
H      -3.02978514     -0.00884127      1.69319343
H      -2.50305209      1.56752334      1.09937221
H      -2.04233134      0.56498058     -1.15345422
H      -2.56939517     -1.01131513     -0.55971590
H      -0.22248015      0.60367609      0.57558116
H      -0.74485500     -0.96843290      1.16505986
H       0.26745442     -0.40981338     -1.68872138
H      -0.27610398     -1.97393374     -1.09948745
H       4.16665501     -1.14817751     -0.36008264
H       3.59566462     -0.68245680      1.27361725
H       3.86489086      1.72390652      0.66411321
H       4.42596275      1.26697282     -0.93958924
H       5.40576410      0.85029041      0.48700249
