11
CCCBr
C      -1.34818698     -0.01428949      0.16759938
C       0.05011626      0.57502953      0.07664087
C       1.10733474     -0.51442574      0.09143421
Br      2.87861742      0.28455087     -0.02664210
H      -1.54850827     -0.68108771     -0.67719915
H      -2.09745238      0.78345865      0.15572127
H      -1.47395127     -0.58469325      1.09348036
H       0.20384371      1.26513014      0.91501709
H       0.12988413      1.16951001     -0.84149628
H       1.01163634     -1.19009528     -0.76294479
H       1.08666630     -1.09308773      1.01899774
