22
CCOc1cc(C=O)ccc1O
C       3.52328570      0.87080865      0.39805703
C       2.01017471      0.98038117      0.34177263
O       1.47859183     -0.34044002      0.22609595
C       0.11393194     -0.45282242      0.16043527
C      -0.80231969      0.59618985      0.19568388
C      -2.17545431      0.31970346      0.11808669
C      -3.15163851      1.42723863      0.15492932
O      -2.80206879      2.59700388      0.25225596
C      -2.64125394     -0.99472776      0.00564461
C      -1.72589729     -2.04458850     -0.02970146
C      -0.36590822     -1.76433200      0.04760549
O       0.50963171     -2.81531347      0.01049583
H       3.83391116      0.25791805      1.25073694
H       3.90810460      0.38164346     -0.50295216
H       3.98280656      1.85915442      0.48722768
H       1.65117821      1.45533490      1.26207634
H       1.72698514      1.58175313     -0.52976269
H      -0.48538653      1.63096640      0.28209759
H      -4.21713027      1.14969575      0.09026586
H      -3.70416155     -1.21270315     -0.05469997
H      -2.06381639     -3.07336957     -0.11657989
H       1.39643394     -2.40949487      0.07664318
