15
O=C(O)c1cc(=O)[nH]c(=O)[nH]1
O       2.46375881     -1.73985265      0.19839014
C       1.95760817     -0.64203808      0.33261788
O       2.66675510      0.42195776      0.75954647
C       0.54611008     -0.27252773      0.07071038
C      -0.30472559     -1.20776046     -0.36084170
C      -1.70146454     -0.81331984     -0.61320605
O      -2.52292996     -1.63104571     -1.00972106
N      -2.01274077      0.49659372     -0.38063365
C      -1.13914203      1.44955541      0.06074154
O      -1.47773973      2.61177120      0.25164794
N       0.13630199      1.01971876      0.27472660
H       3.56956376      0.06287890      0.89805653
H      -0.03399428     -2.24098655     -0.53805116
H      -2.96407944      0.78614279     -0.54758502
H       0.81671843      1.69891249      0.60360117
