17
O=[N+]([O-])c1cccc([N+](=O)[O-])c1O
O       3.33314277      0.14531329     -0.75316652
N       2.60414304     -0.32244727      0.13210674
O       2.95995164     -1.07945674      1.04465135
C       1.22674577      0.12195131      0.14232974
C       0.97593696      1.44466315      0.53227196
C      -0.33803897      1.90388165      0.56661274
C      -1.38313125      1.04617212      0.21279428
C      -1.11363539     -0.27982702     -0.18343052
N      -2.24454979     -1.13912566     -0.55154363
O      -3.38211631     -0.65225136     -0.51851315
O      -1.98846894     -2.30942375     -0.87543037
C       0.20506751     -0.75951554     -0.22625979
O       0.55105368     -2.02288115     -0.62131537
H       1.79320156      2.10915031      0.80729880
H      -0.55130114      2.92801642      0.86853973
H      -2.40362621      1.42755194      0.24816436
H      -0.24437492     -2.56177170     -0.82511034
