38
COCCOC(=O)c1ccccc1C(=O)OCCOC
C      -2.30178809      1.59050515      3.82141179
O      -1.87709108      0.24459230      3.65058385
C      -1.39249553      0.01276332      2.32849476
C      -0.99614368     -1.45296697      2.18592769
O      -0.40644960     -1.71960544      0.90363276
C      -1.28516991     -1.89861640     -0.11114686
O      -2.50061695     -1.83661726     -0.04841095
C      -0.55071023     -2.30884704     -1.32306174
C      -1.03760610     -3.43063988     -2.01126828
C      -0.35582978     -3.92164264     -3.12601008
C       0.81301833     -3.29762554     -3.55974322
C       1.29160774     -2.16879486     -2.89215842
C       0.60043430     -1.65798713     -1.78272102
C       1.12695757     -0.41847248     -1.17995061
O       2.31307369     -0.20698930     -0.99292202
O       0.11096922      0.45934611     -0.99564239
C       0.50518659      1.74321186     -0.48771641
C       1.03507561      2.64452776     -1.60249634
O       1.37391264      3.94366415     -1.11778783
C       2.67540497      3.99235263     -0.54533269
H      -1.46950074      2.28003411      3.64928306
H      -3.12793526      1.82060924      3.14179499
H      -2.65080705      1.71371824      4.85015804
H      -2.16353480      0.27440303      1.59499162
H      -0.52089794      0.64948647      2.13956708
H      -0.24892811     -1.70758407      2.94602925
H      -1.84890744     -2.11752040      2.37355193
H      -1.94191323     -3.93238665     -1.66990247
H      -0.73274178     -4.79682766     -3.65125075
H       1.34834734     -3.68584279     -4.42378552
H       2.19770427     -1.67970213     -3.24656367
H       1.22539654      1.62927335      0.33063518
H      -0.38222026      2.20355154     -0.03876112
H       1.88268831      2.19271705     -2.13111569
H       0.24722660      2.77166543     -2.35403248
H       3.43102737      3.71997225     -1.28832143
H       2.86610558      5.01810756     -0.21802335
H       2.74715087      3.33416708      0.32451097
