9
COC
C      -1.13720563     -0.29327294     -0.05662369
O       0.05683106     -0.18138506     -0.81916052
C       1.14282331      0.27534327     -0.02434922
H      -1.42506680      0.68123378      0.34957420
H      -1.93502629     -0.64664705     -0.71533209
H      -1.00743514     -1.01635978      0.75444300
H       0.92853018      1.26819713      0.38288998
H       1.34616182     -0.42939642      0.78775887
H       2.03038749      0.34228708     -0.65920052
