8
FC(F)C(F)(F)F
F      -1.36735001      0.75500655     -0.86228038
C      -0.77175074     -0.05217896      0.05663357
F      -1.18554924      0.38683235      1.27594841
C       0.74414350     -0.00609343     -0.06431999
F       1.24236170      1.23904084      0.10771021
F       1.15205709     -0.44301706     -1.28176981
F       1.33369346     -0.81085065      0.85452526
H      -1.14760577     -1.06873963     -0.08644727
