33
Cc1cc(C)nc(NS(=O)(=O)c2ccc(N)cc2)n1
C      -4.62090917      2.15156617     -0.29393116
C      -3.36398879      1.35154272     -0.12865930
C      -3.22043912      0.49420887      0.94699723
C      -2.02460503     -0.19325253      1.03750646
C      -1.77072658     -1.12741560      2.18156717
N      -1.04380370     -0.05093302      0.12634449
C      -1.30659061      0.76089449     -0.89678161
N      -0.28802295      1.07966534     -1.78530329
S       0.65846430     -0.16405617     -2.34303944
O      -0.14037497     -1.35830362     -2.52231460
O       1.40762304      0.37873436     -3.46048609
C       1.83404146     -0.42968330     -1.03902424
C       2.81338310      0.53522674     -0.79414869
C       3.75382572      0.31860479      0.21643653
C       3.75599936     -0.87373827      0.94828381
N       4.62539216     -1.03061905      2.03430456
C       2.73953269     -1.80770321      0.72145439
C       1.79334424     -1.60428020     -0.28656808
N      -2.39849055      1.51401797     -1.05508524
H      -5.48505563      1.48540581     -0.37939233
H      -4.76180266      2.81589028      0.56432141
H      -4.57504866      2.76733917     -1.19798288
H      -4.00197330      0.37432265      1.68720487
H      -1.80493714     -0.58194530      3.12972049
H      -0.78458217     -1.59457428      2.09240444
H      -2.52338640     -1.92180209      2.19566260
H      -0.57467567      1.73196838     -2.50471794
H       2.84291845      1.45465872     -1.37342086
H       4.49108039      1.08948461      0.42522891
H       4.78435051     -1.99912384      2.29405331
H       5.49261412     -0.51072476      1.94245987
H       2.67676415     -2.70665785      1.32897191
H       1.02007940     -2.34871800     -0.46034741
