24
COC(=O)c1cccc(C(=O)OC)c1
C      -3.58178259      1.67550737      0.94839322
O      -2.36167160      1.04770891      0.55099795
C      -2.53573241     -0.09582432     -0.15657556
O      -3.60894963     -0.59350301     -0.45774787
C      -1.22200761     -0.68755009     -0.53224254
C      -1.22447666     -1.87936787     -1.27091254
C      -0.02273015     -2.47771349     -1.64992191
C       1.18991506     -1.88803453     -1.29266878
C       1.20931269     -0.69627621     -0.55415209
C       2.53380749     -0.11401978     -0.20225798
O       3.59782350     -0.61937121     -0.52268781
O       2.38073818      1.03068873      0.50826163
C       3.61228721      1.64968951      0.88356186
C      -0.00088883     -0.09689505     -0.17444370
H      -4.15843093      1.01343052      1.60193829
H      -4.16882154      1.96270231      0.07038790
H      -3.33006456      2.58074967      1.50776615
H      -2.16646138     -2.34711649     -1.55442971
H      -0.03121151     -3.40224930     -2.22289040
H       2.12325601     -2.36251473     -1.59308413
H       4.18545873      1.93271032     -0.00489928
H       4.19584859      0.98345498      1.52666018
H       3.37719401      2.55668554      1.44731029
H       0.00758794      0.82710823      0.39819449
