30
CCC1NC(=O)c2cc(S(N)(=O)=O)c(Cl)cc2N1
C       4.73856808     -0.20302462      0.55343844
C       3.67751260     -0.59793331     -0.46512281
C       2.24873966     -0.43468629      0.06710607
N       1.89679721      0.94523343      0.24492768
C       0.60449657      1.31230940      0.51088842
O       0.33581297      2.36599928      1.07330565
C      -0.44321480      0.37322173      0.06371014
C      -1.79440047      0.65763009      0.28220076
C      -2.76778144     -0.21926500     -0.20920354
S      -4.47683476      0.11443881      0.05719083
N      -4.50822184      1.54891582      0.93630572
O      -5.00318404     -0.87923372      0.96262040
O      -5.08867640      0.44651394     -1.20708452
C      -2.38544099     -1.35720276     -0.92585105
Cl     -3.50998050     -2.48632787     -1.59204908
C      -1.02355932     -1.62351159     -1.13650078
C      -0.03680569     -0.78338178     -0.61151766
N       1.31930330     -1.02084874     -0.88850456
H       4.68189811      0.86066792      0.80236604
H       4.62946388     -0.78049412      1.47691707
H       5.73728369     -0.39733477      0.14931408
H       3.84657417     -1.64545033     -0.74541875
H       3.81485891     -0.00317020     -1.37714577
H       2.14850239     -0.94150100      1.03600090
H       2.56759640      1.56398672      0.67813111
H      -2.06251294      1.56542229      0.81707989
H      -4.94273491      1.37976630      1.84514856
H      -4.98227591      2.27008803      0.38932976
H      -0.73364797     -2.49685781     -1.71685795
H       1.51186404     -2.00229949     -1.07072505
