67
C[C@H](CCC(=O)O)[C@H]1CC[C@H]2[C@@H]3CC[C@@H]4C[C@H](O)CC[C@]4(C)[C@H]3CC[C@@]21C
C       4.14867878      1.27511480     -0.53950479
C       3.98255647     -0.24447466     -0.49400397
C       4.99518701     -0.93348258     -1.45496700
C       6.47069463     -0.74705615     -1.08926946
C       7.10184390      0.50172880     -1.64272579
O       7.70753464      1.34042339     -0.99442229
O       6.98422661      0.62418227     -2.97902523
C       2.52819364     -0.69429249     -0.83696704
C       2.35950312     -2.23942416     -0.69519455
C       0.92056543     -2.50691748     -0.24158247
C       0.23521625     -1.16188658     -0.41208833
C      -1.11020020     -0.96222455      0.29562603
C      -2.13808813     -2.00245385     -0.19998094
C      -3.59344130     -1.55253538     -0.05135307
C      -3.75378556     -0.58582650      1.12598221
C      -5.23171000     -0.38833980      1.52571276
C      -6.00377102      0.60743855      0.66691495
O      -6.22859443      0.07641004     -0.63449409
C      -5.26191332      1.93148370      0.54499235
C      -3.83768072      1.73966224      0.02713000
C      -2.97688045      0.75211591      0.86550697
C      -2.68477068      1.39537855      2.24304933
C      -1.64125446      0.47491187      0.05148598
C      -0.55769513      1.56833378      0.22172099
C       0.78155898      1.23751681     -0.45694504
C       1.32382437     -0.13483616     -0.01249368
C       1.64367347     -0.13199326      1.50171334
H       3.93492762      1.67268422     -1.53650419
H       3.50303466      1.77708136      0.18028045
H       5.16029609      1.57223560     -0.26204290
H       4.21815981     -0.57441691      0.52605823
H       4.81674891     -2.01456799     -1.43347164
H       4.79945567     -0.61127657     -2.48426514
H       6.60346992     -0.75397575     -0.00038977
H       7.05268110     -1.59028644     -1.48273172
H       7.42660646      1.47717229     -3.17727758
H       2.35201777     -0.44456606     -1.89442296
H       2.55042346     -2.72961586     -1.65865030
H       3.05704516     -2.66635026      0.03702818
H       0.45321912     -3.29478757     -0.84233242
H       0.90568999     -2.83766117      0.80392235
H       0.04272952     -1.04683391     -1.49284134
H      -0.97712831     -1.11297999      1.37385115
H      -1.98796715     -2.93544203      0.36044446
H      -1.96805964     -2.25431678     -1.25404836
H      -4.22546876     -2.43977525      0.07751026
H      -3.91815679     -1.07637734     -0.98491107
H      -3.29200132     -1.08899704      1.98999271
H      -5.74107855     -1.36077380      1.51809079
H      -5.26512911     -0.03798540      2.56598876
H      -6.98748163      0.79056342      1.11380666
H      -6.70066903     -0.76803031     -0.53165118
H      -5.24282846      2.44316321      1.51432518
H      -5.79741389      2.58678668     -0.15293298
H      -3.34699054      2.72144822     -0.02072870
H      -3.90178029      1.38707124     -1.01113303
H      -1.95516963      0.80347363      2.80548587
H      -2.29453353      2.41294067      2.14289868
H      -3.58269590      1.47276253      2.86341344
H      -1.89809998      0.50276591     -1.01993974
H      -0.35296927      1.75559871      1.28046263
H      -0.93165867      2.51515523     -0.18753096
H       1.48325603      2.04246239     -0.22414454
H       0.64207871      1.25363227     -1.54640381
H       0.75732282      0.01509200      2.12360297
H       2.33711449      0.67550878      1.75600103
H       2.10753127     -1.06775539      1.83037340
