18
C=C(C)C(=O)OCC
C       1.59552439     -1.54585732     -0.17989022
C       1.62313306     -0.20193244     -0.18822693
C       2.89799460      0.57246073     -0.33962363
C       0.39161445      0.63007784     -0.04799999
O       0.40902892      1.85255806     -0.05468649
O      -0.71758026     -0.14036933      0.08408993
C      -1.93454769      0.60150663      0.22296511
C      -3.07710230     -0.38587664      0.35976788
H       0.67303983     -2.10807535     -0.07033345
H       2.50634126     -2.12729389     -0.28373040
H       3.06536163      1.21132551      0.53389700
H       3.76750104     -0.08628750     -0.43835873
H       2.85962249      1.20459105     -1.23300877
H      -2.09037557      1.22665727     -0.66342605
H      -1.88309627      1.23344381      1.11671735
H      -2.92534798     -1.03275761      1.23018980
H      -4.03227729      0.13524321      0.46900482
H      -3.12883429     -1.03941402     -0.51734724
