33
Cc1cc(OC(=O)N(C)C)n(-c2ccccc2)n1
C      -2.13368727      4.09443352      0.30179917
C      -1.47616983      2.76887119      0.21875875
C      -0.14985590      2.48050847     -0.13803573
C      -0.01905514      1.10825007     -0.04496060
O       1.02624740      0.29999020     -0.17070562
C       2.15064895      0.68584584     -0.82451131
O       2.26504879      1.71662284     -1.48108085
N       3.18283531     -0.23911802     -0.69495239
C       4.39214727     -0.06550425     -1.47767670
C       3.04277252     -1.49322810      0.02457330
N      -1.28344891      0.63301602      0.31384881
C      -1.74922055     -0.71166570      0.47269839
C      -0.99463002     -1.82006529      0.06795098
C      -1.49194409     -3.11662463      0.24263892
C      -2.74541157     -3.31914388      0.81528640
C      -3.51127387     -2.22574196      1.20831818
C      -3.01999324     -0.92941904      1.03468205
N      -2.15322805      1.66357079      0.52762120
H      -1.46074026      4.89084195     -0.03182499
H      -2.43063510      4.31117780      1.33296487
H      -3.02760764      4.12109827     -0.32969287
H       0.62401888      3.18931852     -0.39870763
H       4.44906542      0.92549374     -1.93505028
H       5.26037168     -0.20180792     -0.82627507
H       4.40723824     -0.82109541     -2.26879991
H       2.81279693     -2.28321944     -0.69612739
H       3.98320725     -1.72391835      0.53367554
H       2.24854083     -1.44812695      0.77316774
H      -0.03194418     -1.72134655     -0.41776934
H      -0.90185413     -3.97103264     -0.07984997
H      -3.12902688     -4.32749000      0.94693322
H      -4.49342351     -2.37689509      1.64895046
H      -3.64178934     -0.09359601      1.35215269
