30
Cc1c(Cl)cccc1Nc1ccccc1C(=O)O
C      -2.42130520      0.52038640     -2.07456273
C      -2.47700308      0.09834086     -0.62712967
C      -3.72083287     -0.11518798      0.00115617
Cl     -5.21825277      0.10598969     -0.83918066
C      -3.79543778     -0.50759264      1.33946031
C      -2.63158843     -0.67906116      2.07822337
C      -1.39352748     -0.45234709      1.47890600
C      -1.29333703     -0.06200358      0.13250558
N      -0.03383302      0.19341856     -0.46447471
C       1.26075048     -0.24903599     -0.09455867
C       1.44672819     -1.55733039      0.38657318
C       2.71081194     -2.02784200      0.74971092
C       3.82183676     -1.20124404      0.62847512
C       3.67092383      0.09366151      0.13364430
C       2.40172079      0.57483072     -0.23600812
C       2.26160035      1.95451599     -0.77498384
O       1.22748296      2.46046743     -1.17688118
O       3.41662677      2.64468589     -0.78826740
H      -1.42988873      0.38334845     -2.51613152
H      -3.10107172     -0.08384451     -2.68430410
H      -2.69242716      1.57694890     -2.16553214
H      -4.76028005     -0.67269612      1.81207703
H      -2.68494034     -0.97365089      3.12287033
H      -0.50035203     -0.55385778      2.09029600
H      -0.01771216      1.13520074     -0.87454675
H       0.59814193     -2.23436830      0.46079583
H       2.82415074     -3.04444404      1.11840055
H       4.80697501     -1.56629788      0.90845384
H       4.55369972      0.72134756      0.03499953
H       3.17034038      3.51766170     -1.15998656
