10
ClC(Cl)=C(Cl)C(Cl)=C(Cl)Cl
Cl     -2.59034762      2.01466037     -0.44228264
C      -1.45496422      0.70410706     -0.50501127
Cl     -1.52406656     -0.26301400     -1.94858344
C      -0.58343211      0.44176883      0.48769603
Cl     -0.51900902      1.40993785      1.93837970
C       0.38743660     -0.64204684      0.45942133
Cl     -0.14608134     -2.08955889      1.27554089
C       1.58923551     -0.56690327     -0.14381223
Cl      2.12443844      0.87650321     -0.95259686
Cl      2.71679031     -1.88545434     -0.16875151
