25
COP(=S)(OC)Oc1ccc(C#N)cc1
C       3.07049863     -1.90233975     -0.26849054
O       1.85537500     -1.19256780     -0.40430944
P       1.70060275      0.22248478      0.37017264
S       1.84006230      0.17973140      2.30584839
O       2.81998420      1.10991348     -0.39766813
C       2.87389793      2.49761102     -0.13126280
O       0.33964504      0.81487852     -0.26858199
C      -0.91430461      0.29103095     -0.13509974
C      -1.19952090     -0.94890886      0.43158832
C      -2.52520789     -1.39042225      0.51533305
C      -3.56766012     -0.59515918      0.02856983
C      -4.92417519     -1.05122277      0.11427407
N      -6.02260549     -1.41992401      0.18099876
C      -3.27778593      0.64541767     -0.54536547
C      -1.95365144      1.08383844     -0.62713678
H       3.08307955     -2.71304800     -1.00151585
H       3.14222847     -2.33598924      0.73203253
H       3.92733853     -1.24969695     -0.45474908
H       3.31462350      2.67357347      0.85312732
H       3.50566974      2.97224899     -0.88643429
H       1.87696716      2.94362115     -0.17889058
H      -0.41992546     -1.60137455      0.81285630
H      -2.73509997     -2.36088481      0.96264535
H      -4.07541955      1.27717000     -0.93173932
H      -1.73461625      2.05001830     -1.07620257
