23
C/C=C/c1ccc(OC)cc1
C       4.24822675      1.32008200      0.18402235
C       2.76758744      1.11934298      0.15967377
C       2.16581923     -0.02063659      0.53440988
C       0.71157525     -0.23022533      0.52587531
C      -0.11533136      0.28692805     -0.47875757
C      -1.49495001      0.04099931     -0.47240414
C      -2.06442883     -0.73531577      0.53571068
O      -3.38913413     -1.05068538      0.65948675
C      -4.26912858     -0.52416960     -0.32546387
C      -1.24170716     -1.26607695      1.53055072
C       0.13514459     -1.02191898      1.52444410
H       4.50019560      2.15328997      0.84711334
H       4.78180501      0.43108225      0.53483316
H       4.60781066      1.55920864     -0.82142569
H       2.18005080      1.97222992     -0.17136352
H       2.76098452     -0.85795906      0.89250170
H       0.30517250      0.87955857     -1.28761515
H      -2.09019239      0.46684525     -1.27282016
H      -4.26755560      0.57079939     -0.31212959
H      -5.28218661     -0.85827540     -0.08145325
H      -4.02268642     -0.90853762     -1.32074970
H      -1.67548171     -1.87674063      2.31855616
H       0.74841043     -1.44982503      2.31390880
