35
O=C(O)CCCCCCCCCC(=O)O
O       5.28193755      1.25429014     -0.47515423
C       5.55461518      0.06683191     -0.45584687
O       6.64668034     -0.39427262     -1.09742308
C       4.81457119     -1.03616873      0.25349567
C       3.43516828     -0.60495706      0.75052801
C       2.42466722     -0.44628112     -0.38997133
C       1.04772862     -0.03952247      0.14179489
C       0.03792989      0.11496034     -0.99774855
C      -1.32774129      0.63623939     -0.53799608
C      -2.09137928     -0.35690318      0.34196886
C      -3.45647103      0.16512714      0.80108743
C      -4.45683657      0.34291634     -0.34033988
C      -5.82304169      0.71219781      0.17284154
O      -6.15042653      0.93738047      1.32477486
O      -6.72807187      0.78915777     -0.82320163
H       7.04166320      0.40838337     -1.49818280
H       5.42640473     -1.33756905      1.11112469
H       4.71653069     -1.89268239     -0.42257223
H       3.51153165      0.33379649      1.31247353
H       3.06495877     -1.36602038      1.44844914
H       2.77684238      0.30878965     -1.10209289
H       2.33983124     -1.39224445     -0.93863290
H       1.13150339      0.90671038      0.68972190
H       0.70114300     -0.79803784      0.85213818
H       0.43974147      0.82026067     -1.73601368
H      -0.08880718     -0.84412774     -1.51451834
H      -1.19848418      1.58444307     -0.00245707
H      -1.91607445      0.85667529     -1.43578509
H      -2.22186472     -1.30433315     -0.19467513
H      -1.50388522     -0.57929165      1.23965970
H      -3.86620157     -0.54500190      1.53096940
H      -3.32925883      1.11492495      1.33551838
H      -4.54564675     -0.59297331     -0.90288101
H      -4.12957986      1.13933253     -1.01596809
H      -7.55967776      1.03796934     -0.36781557
