32
Cn1c(=O)c2c(ncn2CC(O)CO)n(C)c1=O
C      -2.85318222     -2.35112737     -0.65578079
N      -2.28047280     -1.08662265     -0.23801138
C      -0.89628284     -1.01844470     -0.05919407
O      -0.12325885     -1.95490773     -0.24415511
C      -0.45587423      0.26903861      0.35054810
C      -1.29628704      1.32869552      0.50959371
N      -0.63117520      2.45489602      0.88811830
C       0.63229210      2.08338737      0.95500562
N       0.78564021      0.75538731      0.65137609
C       2.03186232      0.00912934      0.69204524
C       2.64570158     -0.16295524     -0.70066097
O       3.34397740      1.04156613     -1.05648761
C       3.64682066     -1.32113236     -0.72693353
O       4.71412442     -1.02775264      0.17768664
N      -2.64861052      1.21960673      0.29274081
C      -3.50622407      2.37915777      0.45661495
C      -3.18036613     -0.00833454     -0.10159781
O      -4.38523106     -0.15633955     -0.32729144
H      -3.23721800     -2.24158504     -1.67525381
H      -3.68879635     -2.60755603      0.00368133
H      -2.12573818     -3.16648429     -0.63502753
H       1.46562361      2.72405457      1.21579926
H       1.80431581     -0.95550250      1.15873299
H       2.70927071      0.55299837      1.36134468
H       1.87538172     -0.33353713     -1.46004475
H       4.21250225      0.98475885     -0.60834410
H       4.08236124     -1.42313225     -1.72605875
H       3.17750431     -2.26536992     -0.43482652
H       5.34265713     -1.77060427      0.11734119
H      -4.55727139      2.13708802      0.27877874
H      -3.40398490      2.75943217      1.47797793
H      -3.20006166      3.15219145     -0.25532594
