18
COC(=O)c1ccccc1
C       3.41295879      0.37976357      0.05232866
O       2.00721076      0.55672567     -0.12717896
C       1.26038525     -0.48586810      0.31596413
O       1.69362028     -1.50596956      0.82875513
C      -0.18883110     -0.22752682      0.09494670
C      -0.66201182      0.95221621     -0.49619788
C      -2.03379286      1.14363727     -0.68023885
C      -2.93766928      0.16141888     -0.27638582
C      -2.47475604     -1.01450863      0.31225202
C      -1.10461955     -1.20956254      0.49790232
H       3.91822751      1.26900298     -0.33459180
H       3.65430493      0.27929945      1.11519144
H       3.76491364     -0.49074696     -0.51012994
H       0.02470507      1.73089072     -0.81839235
H      -2.39710562      2.06004021     -1.13914001
H      -4.00481170      0.31268422     -0.42067109
H      -3.17942822     -1.78030996      0.62712481
H      -0.75330003     -2.13118661      0.95846149
