12
C=C(C)C
C      -0.53262516      1.45201738     -0.07594843
C      -0.07093320      0.19337472     -0.01011501
C      -0.98340502     -0.97969957      0.20333176
C       1.38954570     -0.12750172     -0.14541937
H       0.13432344      2.29489739     -0.23059582
H      -1.59069432      1.67539141      0.02292877
H      -0.71024061     -1.51121694      1.12065447
H      -0.90944079     -1.67627496     -0.63804931
H      -2.03139096     -0.67492008      0.29342807
H       1.55483715     -0.79128105     -1.00022114
H       1.75403513     -0.62621926      0.75848261
H       1.99598864      0.77143269     -0.29847659
