53
OCCN1CCN(CCCN2c3ccccc3Sc3ccc(Cl)cc32)CC1
O       7.47774474      1.80213972      0.71627941
C       6.58297571      0.83583114      0.16728820
C       5.16779953      1.42192582      0.04679187
N       4.19353379      0.52254138     -0.59220545
C       2.93886406      1.25427454     -0.87016221
C       1.85403001      0.34890677     -1.49674718
N       1.53467588     -0.81282769     -0.63539164
C       0.53379926     -1.69290313     -1.25642433
C      -0.89079711     -1.13375594     -1.16176638
C      -1.37247668     -1.02567782      0.29400785
N      -2.71065573     -0.38797259      0.37696743
C      -3.85044687     -1.24358524      0.35549865
C      -3.76752058     -2.60521139     -0.01727391
C      -4.88377562     -3.45086417     -0.05067598
C      -6.13310687     -2.96116461      0.28681215
C      -6.25802782     -1.62678396      0.65291537
C      -5.13755356     -0.77159344      0.68571287
S      -5.47449269      0.89619994      1.19709727
C      -3.92871889      1.71094810      0.88259616
C      -3.94806181      3.11390255      1.02705333
C      -2.79949010      3.87237157      0.83007826
C      -1.62511671      3.22590852      0.48867824
Cl     -0.18761626      4.13833019      0.23058552
C      -1.59647022      1.83537400      0.34659739
C      -2.74224725      1.02984479      0.53981503
C       2.78914029     -1.55276460     -0.37918984
C       3.88628321     -0.65575057      0.24290587
H       7.16196548      2.01636125      1.61059410
H       6.96559805      0.54867432     -0.81733137
H       6.60807872     -0.04449357      0.81599517
H       4.82035596      1.74286419      1.03813998
H       5.25495933      2.34328885     -0.54495677
H       3.14225197      2.07305684     -1.57109376
H       2.54201533      1.70257938      0.05105814
H       0.96150694      0.96268390     -1.65428269
H       2.19459743      0.01356305     -2.48587230
H       0.53334430     -2.66724394     -0.74993697
H       0.78458599     -1.89142392     -2.30634553
H      -0.95959011     -0.16700570     -1.67136348
H      -1.55578190     -1.79950248     -1.72398540
H      -1.37490582     -2.01674823      0.76553647
H      -0.64866835     -0.48574443      0.91636785
H      -2.82786924     -3.05911994     -0.31259622
H      -4.76745949     -4.49065136     -0.34582228
H      -7.00526230     -3.60823429      0.26460807
H      -7.24383593     -1.24873878      0.91746947
H      -4.87074729      3.62428450      1.29826698
H      -2.83235938      4.95177445      0.94370587
H      -0.64431835      1.40080031      0.06534436
H       2.59064841     -2.37439518      0.31988138
H       3.17049266     -1.99812353     -1.30824625
H       4.78295477     -1.27333135      0.36316965
H       3.56517112     -0.34281820      1.24560275
