16
O=Cc1cc(O)ccc1O
O       3.20725421      0.22131555     -0.29692525
C       2.29682850     -0.58017601     -0.48513389
C       0.90014295     -0.21869560     -0.18692572
C      -0.10102976     -1.16463353     -0.41771030
C      -1.42384236     -0.83419417     -0.13967211
O      -2.37278705     -1.78352356     -0.37787136
C      -1.76369098      0.41972547      0.36301452
C      -0.75991683      1.36266797      0.59238650
C       0.56811431      1.04399160      0.31807231
O       1.49806782      2.01605419      0.56690063
H       2.48572824     -1.59207827     -0.88072222
H       0.13027739     -2.15108067     -0.80891460
H      -3.24431639     -1.42288309     -0.14195870
H      -2.79468631      0.68117888      0.58115960
H      -1.00952902      2.34535887      0.98436444
H       2.38338527      1.65697237      0.32993614
