46
CCC1CN2CCC1CC2C(O)c1ccnc2ccccc12
C       3.78240900      1.21589915     -2.29149893
C       2.89666291      0.10396044     -1.74395335
C       2.98454469     -0.02265421     -0.21315148
C       2.35012054      1.18206077      0.52697199
N       1.28513301      0.75477346      1.47173368
C       1.89535333     -0.14905021      2.47502957
C       2.55160051     -1.37542582      1.82556543
C       2.32581595     -1.32610160      0.30473347
C       0.80323322     -1.28807701      0.09056949
C       0.23982966      0.02718813      0.66914509
C      -1.07261779     -0.17306708      1.49065552
O      -1.38778281      1.03575826      2.19109715
C      -2.26133556     -0.62018960      0.65598438
C      -2.68962330     -1.94739126      0.80911240
C      -3.73248963     -2.41084539      0.03372640
N      -4.37338659     -1.66165092     -0.88049972
C      -3.99111480     -0.38397128     -1.03051169
C      -4.67080208      0.37995275     -1.96986403
C      -4.35825097      1.71937611     -2.20249666
C      -3.34234707      2.31803923     -1.47553681
C      -2.64301446      1.57099408     -0.52720320
C      -2.93997451      0.20594547     -0.28551867
H       3.47932709      2.19692706     -1.91450500
H       4.82982714      1.05157411     -2.01906017
H       3.71846492      1.24294531     -3.38401655
H       1.86355591      0.28739085     -2.06009049
H       3.20872791     -0.84110988     -2.20464094
H       4.04953727     -0.06385642      0.05621087
H       1.93027441      1.91450456     -0.17295883
H       3.12739162      1.72526274      1.08003383
H       2.64244147      0.40479945      3.05775072
H       1.14473361     -0.46722422      3.20740696
H       2.12248270     -2.29415901      2.24299136
H       3.62520002     -1.39034184      2.04816192
H       2.76369145     -2.20939210     -0.17249799
H       0.35274027     -2.16365423      0.57314497
H       0.56392893     -1.35840632     -0.97662102
H      -0.00725870      0.68536314     -0.17353163
H      -0.89094081     -0.91685289      2.27596234
H      -0.51464227      1.44341367      2.36842595
H      -2.21868978     -2.61798265      1.52075923
H      -4.08958468     -3.43237695      0.12678515
H      -5.47468478     -0.08408631     -2.53701561
H      -4.91514548      2.28755780     -2.94221414
H      -3.09568808      3.36438705     -1.63452278
H      -1.86765339      2.07979362      0.03953690
