45
COc1cc(OC)nc(NC(=O)NS(=O)(=O)c2c(-c3nnn(C)n3)cnn2C)n1
C       0.37614907     -2.69349050     -2.29921330
O       1.65987380     -2.94752964     -1.73212574
C       2.23518127     -1.84292202     -1.13742289
C       3.53340145     -1.98172883     -0.72698752
C       4.06716238     -0.87735629     -0.11732843
O       5.37375095     -0.99388712      0.31388403
C       5.88654119      0.19686758      0.90428070
N       3.39355315      0.26917099      0.08149140
C       2.13266964      0.29977515     -0.35977113
N       1.46923407      1.49365320     -0.14985563
C       0.20021243      1.83950665     -0.49408092
O      -0.21704462      2.95845135     -0.22123588
N      -0.58417567      0.89239968     -1.13005837
S      -2.18417648      1.05199998     -1.47422715
O      -2.35222921      2.16327194     -2.38234209
O      -2.67350071     -0.26460525     -1.82397842
C      -3.05811074      1.45595055     -0.00635162
C      -2.98633636      0.95564169      1.28434356
C      -2.14700243     -0.09236376      1.83572424
N      -2.22234846     -0.42837952      3.16239161
N      -1.35558517     -1.41330025      3.35194012
N      -0.82013745     -1.63164747      2.14167778
C       0.18112989     -2.64040332      1.92739216
N      -1.24607388     -0.81719362      1.15593132
C      -3.93850596      1.67122238      2.02648030
N      -4.59423408      2.55722651      1.27839853
N      -4.05395218      2.40354444      0.04720679
C      -4.58877869      3.21091803     -1.02730335
N       1.50823091     -0.72760708     -0.95332837
H       0.42060531     -1.88867932     -3.04115512
H       0.05212975     -3.60417366     -2.81184623
H      -0.35934720     -2.46913193     -1.51989951
H       4.09596176     -2.89190870     -0.87438472
H       6.92320347      0.00426107      1.19685220
H       5.32813771      0.46201277      1.80867539
H       5.89017581      1.02490825      0.18705297
H       2.00968587      2.21211717      0.30407866
H      -0.25859982     -0.07261544     -1.11535267
H       0.11700737     -3.38720544      2.72264831
H       1.16053219     -2.15739538      1.94142638
H       0.00011316     -3.11733949      0.96169191
H      -4.19025233      1.58323228      3.07660188
H      -3.84385588      3.96133248     -1.30065510
H      -4.84225654      2.56082860     -1.86760626
H      -5.49813875      3.71257126     -0.68331441
