43
COC(=O)C1=C(C)NC(C)=C(C(=O)OC)C1c1ccccc1[N+](=O)[O-]
C       3.48036803     -2.00443802      1.36053054
O       2.15483842     -1.72518397      0.90567072
C       2.05786417     -1.53144303     -0.43232370
O       2.97553035     -1.58583379     -1.23495657
C       0.64990078     -1.22742421     -0.77767029
C       0.06693135     -1.75580132     -1.87904140
C       0.73457805     -2.72893490     -2.81853805
N      -1.24722001     -1.43053073     -2.18223652
C      -2.07555033     -0.67275245     -1.36961748
C      -3.51263755     -0.56449717     -1.81026688
C      -1.56886159     -0.11178191     -0.25061631
C      -2.42373577      0.66611391      0.66166193
O      -2.90160831      1.75631922      0.39501910
O      -2.58953352     -0.04213165      1.80310644
C      -3.36614092      0.63156573      2.79307385
C      -0.10258010     -0.25780764      0.14020973
C       0.59945685      1.10865669      0.17167583
C       0.67484555      1.86793285     -1.01576007
C       1.33618601      3.09973702     -1.05361777
C       1.94583854      3.60797520      0.09033105
C       1.89154923      2.88734893      1.27984564
C       1.21956449      1.65451803      1.31370125
N       1.19526631      0.97203196      2.59711630
O       0.08737925      0.76285859      3.10629913
O       2.28797234      0.67795126      3.10018602
H       4.14090611     -1.15658795      1.15363753
H       3.86199722     -2.91764222      0.89336623
H       3.44185078     -2.15891267      2.44229605
H       1.53009207     -3.30609784     -2.33931673
H       0.00985212     -3.46260579     -3.18996730
H       1.15029787     -2.19619957     -3.67960786
H      -1.67108004     -1.88770352     -2.98640477
H      -3.93161644     -1.56371013     -1.97290970
H      -3.57371146     -0.00977261     -2.75254635
H      -4.15676098     -0.06229544     -1.08406666
H      -4.39167497      0.77514072      2.43888648
H      -2.90959797      1.59117668      3.05594596
H      -3.39239718      0.00426687      3.68829307
H      -0.10179490     -0.71847918      1.13380757
H       0.21747997      1.50032983     -1.93499703
H       1.37629860      3.66123471     -1.98490863
H       2.46106949      4.56492030      0.05273024
H       2.36858813      3.28848920      2.17197942
