50
CCCCCCCC(=O)OOC(=O)CCCCCCC
C      -8.04942439     -1.47393344     -1.31931408
C      -6.85981649     -0.96910444     -2.12124218
C      -6.19037660      0.26407812     -1.51101489
C      -5.53259926     -0.01115723     -0.15591185
C      -4.78339777      1.22306871      0.35302433
C      -4.20291406      1.04944251      1.76133558
C      -3.16623903     -0.06215466      1.89919716
C      -1.96296598      0.15093047      1.01673833
O      -1.69450678     -0.54362971      0.04374930
O      -1.23211393      1.21821167      1.46275376
O      -0.06126359      1.32594873      0.58750180
C       0.97042497      0.68411181      1.22266924
O       0.91346421      0.17737657      2.33567611
C       2.18607069      0.70224920      0.32611768
C       3.38836294      0.02445725      0.98123339
C       4.60677988      0.03578972      0.05583366
C       5.81284808     -0.63231044      0.72008898
C       7.02330921     -0.76689256     -0.20818462
C       7.61998157      0.57629057     -0.63025194
C       8.88494429      0.38634671     -1.45355633
H      -7.74082304     -1.86051659     -0.34336643
H      -8.54437126     -2.28988425     -1.85581724
H      -8.78384626     -0.67778935     -1.16132553
H      -7.20402850     -0.71359093     -3.13037599
H      -6.12595546     -1.77589328     -2.23219086
H      -6.92796319      1.06947337     -1.40822230
H      -5.42735510      0.62205436     -2.21342193
H      -4.84066010     -0.85407632     -0.25977343
H      -6.29255958     -0.29830870      0.57912991
H      -3.98485508      1.48769797     -0.35025379
H      -5.47290560      2.07644992      0.37407682
H      -3.75453970      2.00340611      2.06575457
H      -5.02192240      0.85382788      2.46429488
H      -3.60076405     -1.03969039      1.66454327
H      -2.81778149     -0.12889575      2.93682433
H       1.93023127      0.18343605     -0.60465273
H       2.42902496      1.74635931      0.09943789
H       3.13194216     -1.01024493      1.24132439
H       3.63256334      0.53471196      1.92141750
H       4.84836595      1.07222247     -0.20498964
H       4.36336029     -0.48750342     -0.87671794
H       6.09880851     -0.07078708      1.61787462
H       5.52680564     -1.63744528      1.05438795
H       6.74146290     -1.34315900     -1.09816294
H       7.79081981     -1.35109416      0.31499778
H       6.89760024      1.14386363     -1.22630904
H       7.85512177      1.17554465      0.25685842
H       9.65296558     -0.13956359     -0.87737788
H       8.67955836     -0.19114511     -2.36075497
H       9.29113208      1.35752287     -1.75365314
