9
CC(N)=S
C      -1.08842501     -0.16557294      0.22568132
C       0.21430872      0.50318191     -0.11127481
N       1.30958461     -0.29948092     -0.20070587
S       0.34199070      2.14239529     -0.36781404
H      -0.95830180     -1.24420940      0.35471949
H      -1.81282157      0.00138800     -0.57788504
H      -1.49075203      0.24768055      1.15611065
H       2.20696914      0.11484189     -0.42623430
H       1.27744725     -1.30022438     -0.05259740
