41
CC(=O)c1c(O)c(C)c(O)c2c1OC1=CC(=O)C(C(C)=O)C(=O)C12C
C      -3.18492887     -2.80070560      1.50828816
C      -3.72423096     -1.58651769      0.80216486
O      -4.92261921     -1.49629660      0.52573118
C      -2.82062463     -0.46054836      0.42994582
C      -3.36374246      0.76435703     -0.01741600
O      -4.72285147      0.94198101     -0.14760620
C      -2.54881422      1.87563942     -0.34913686
C      -3.17435295      3.17150920     -0.79284521
C      -1.15661854      1.72890286     -0.28303774
O      -0.29590603      2.74022356     -0.57885226
C      -0.61081564      0.52442448      0.12087115
C      -1.43855836     -0.54477784      0.48769851
O      -0.69458809     -1.64107362      0.86714454
C       0.64345756     -1.33682273      0.63595794
C       1.58774620     -2.27908620      0.56981156
C       2.90444435     -1.88091588      0.02337938
O       3.88465187     -2.57757732      0.27445698
C       2.96675942     -0.69885131     -0.91737317
C       4.19293178      0.14453271     -0.68602723
C       5.43180671     -0.20924719     -1.46777631
O       4.19799721      1.07133502      0.12442687
C       1.69855241      0.13310197     -0.95567567
O       1.41770694      0.75787355     -1.98222839
C       0.83012239      0.13359239      0.30239294
C       1.45497466      0.90559642      1.46605046
H      -2.59388161     -2.50951152      2.38018778
H      -2.60103694     -3.41220744      0.81636491
H      -4.02445912     -3.40249683      1.87139861
H      -5.17170789      0.08664903      0.04355693
H      -2.59635056      4.02929718     -0.43330254
H      -4.18402783      3.29990730     -0.39046592
H      -3.22346623      3.20578624     -1.88546459
H      -0.69925455      3.31137047     -1.25406061
H       1.42461412     -3.32051271      0.81365895
H       3.04554357     -1.13776303     -1.92253412
H       5.22527071     -0.12687297     -2.53773827
H       5.75134201     -1.22434340     -1.22236786
H       6.23744612      0.48499828     -1.21274846
H       0.78846593      0.94213552      2.33681163
H       2.39247829      0.45312657      1.80549481
H       1.67652393      1.93978801      1.17910322
