23
CC(O)COc1ccccc1
C       3.70801801     -0.29510621      0.66459339
C       2.55628699     -0.53612419     -0.29651655
O       2.83483573      0.16551874     -1.51183423
C       1.22248123     -0.05119894      0.28341377
O       0.19681467     -0.39746145     -0.65600419
C      -1.08774491     -0.06800648     -0.32147439
C      -1.48846226      0.61531313      0.82746964
C      -2.84270195      0.88938693      1.04477175
C      -3.79987766      0.48321965      0.11657162
C      -3.40504827     -0.19767106     -1.03207091
C      -2.05327727     -0.47061098     -1.24825532
H       3.82147098      0.77288181      0.88115682
H       4.65244498     -0.62721083      0.22010798
H       3.55870084     -0.83057226      1.60698385
H       2.49339072     -1.60069302     -0.54830722
H       2.02307144      0.10044519     -2.05036453
H       1.03472912     -0.54461000      1.24415677
H       1.24955649      1.03853492      0.40444703
H      -0.77640972      0.95203505      1.57306262
H      -3.15019338      1.42274376      1.94084071
H      -4.85137959      0.69819084      0.28811574
H      -4.14635714     -0.51630907     -1.75994232
H      -1.75034904     -1.00269554     -2.14656974
