59
CC(=O)OCC(=O)[C@@]1(O)CC[C@H]2[C@@H]3CCC4=CC(=O)C=C[C@]4(C)[C@H]3[C@@H](O)C[C@@]21C
C       6.42219243     -1.15819512      2.33968400
C       5.10365326     -0.51368885      2.04268846
O       4.01945116     -1.07236842      2.14006909
O       5.28783341      0.78220478      1.67076162
C       4.09014740      1.45042117      1.27356930
C       3.65379367      1.08352643     -0.14624448
O       4.42651827      0.52602745     -0.93038998
C       2.21112366      1.46549448     -0.54561521
O       1.86829200      2.70331029      0.09290883
C       2.03678135      1.66063711     -2.08015350
C       0.62140783      1.15573285     -2.42928999
C      -0.02876221      0.88026310     -1.07726708
C      -1.27224692     -0.02071899     -1.02553213
C      -2.36874593      0.52062117     -1.96143784
C      -3.67124361     -0.26164030     -1.84375940
C      -4.12072128     -0.30917337     -0.40629008
C      -5.31129023      0.20363651     -0.04798050
C      -5.75690331      0.22975352      1.35959563
O      -6.84263015      0.69942122      1.67604308
C      -4.83720994     -0.32429295      2.37004225
C      -3.65177273     -0.83681063      2.01487805
C      -3.11894555     -0.91851174      0.58766801
C      -2.97585403     -2.42304633      0.26598785
C      -1.77919480     -0.09590480      0.45754521
C      -0.63901171     -0.49577161      1.44097487
O      -0.33673623     -1.87988592      1.33807814
C       0.64938000      0.33438412      1.25109642
C       1.14593684      0.37281295     -0.20851015
C       1.66356765     -1.02422554     -0.64938882
H       7.06887905     -1.10209643      1.46036176
H       6.26298921     -2.21215455      2.58485808
H       6.89095497     -0.66537245      3.19486745
H       4.30396329      2.52417086      1.28472186
H       3.28912440      1.26563774      1.99452499
H       2.30447277      3.42892760     -0.38952397
H       2.13625352      2.71281951     -2.37019873
H       2.76873573      1.09571926     -2.66724684
H       0.67950026      0.24759076     -3.03981396
H       0.06724276      1.90500458     -3.00404177
H      -0.35094022      1.86148402     -0.69145784
H      -1.01259015     -1.02478333     -1.37582042
H      -2.02741890      0.47863250     -3.00251268
H      -2.56048922      1.57812732     -1.73551991
H      -3.53861764     -1.27918013     -2.22844568
H      -4.42746656      0.21025637     -2.48295905
H      -6.00173020      0.64083881     -0.75999880
H      -5.17982328     -0.30450330      3.39719098
H      -3.02985252     -1.26266698      2.79967886
H      -2.40816596     -2.60592612     -0.65116913
H      -2.48179036     -2.97676620      1.07168957
H      -3.95932827     -2.89326830      0.13345990
H      -2.03269752      0.94170125      0.73565822
H      -0.97774483     -0.32913693      2.46949383
H       0.42336610     -2.06773329      1.91830989
H       1.43721024     -0.06937403      1.89613507
H       0.44219594      1.35202165      1.60415171
H       2.15047146     -1.00351391     -1.62958516
H       2.40067631     -1.40684510      0.06357718
H       0.87380935     -1.77362378     -0.72399692
