44
COC(=O)c1ccccc1S(=O)(=O)NC(=O)N(C)c1nc(C)nc(OC)n1
C      -2.32278649     -3.39576206     -1.65522906
O      -2.95709323     -2.46853728     -0.77418236
C      -2.13218279     -1.49861943     -0.32550162
O      -0.93226725     -1.38151686     -0.50849353
C      -2.89550199     -0.54531460      0.48947487
C      -3.53149685     -1.02069287      1.64580705
C      -4.18185645     -0.12996400      2.50062808
C      -4.19535071      1.23360589      2.20846259
C      -3.56629729      1.71131487      1.05678840
C      -2.90881647      0.82102187      0.19624653
S      -2.22350696      1.44181062     -1.32866638
O      -2.60954389      2.83499377     -1.40570285
O      -2.60231194      0.49628577     -2.35554653
N      -0.59539821      1.34977959     -1.04973374
C       0.37248818      1.83523119     -1.92981295
O       0.03861310      2.47362543     -2.92244140
N       1.70983939      1.57428891     -1.65005426
C       2.71876171      2.04268898     -2.58992467
C       2.19174529      0.89754805     -0.50322588
N       1.32322081      0.46604739      0.41389242
C       1.83789648     -0.18221369      1.46105633
C       0.88159924     -0.72732642      2.47553370
N       3.13231676     -0.41253568      1.64429040
C       3.91406795      0.06888158      0.68466662
O       5.28025859     -0.09617606      0.76368355
C       5.69548216     -0.81949949      1.91463031
N       3.50587041      0.72379125     -0.39450102
H      -1.54487253     -3.95363589     -1.12469014
H      -3.07952653     -4.10287925     -2.00587246
H      -1.90367523     -2.87757101     -2.52371208
H      -3.51604392     -2.08178347      1.88670584
H      -4.67935787     -0.49817548      3.39540398
H      -4.70895769      1.92698477      2.87176682
H      -3.60878025      2.77628076      0.83244538
H      -0.28257620      0.65151495     -0.37291279
H       3.29814227      1.18995860     -2.95981874
H       3.37988940      2.75732930     -2.08816853
H       2.27922122      2.54506314     -3.45604449
H       1.34375931     -0.75178941      3.46709126
H      -0.01670211     -0.10466014      2.53166339
H       0.58862003     -1.74369882      2.19691166
H       6.78626177     -0.90179416      1.88159556
H       5.28608261     -1.83578378      1.91550038
H       5.43076614     -0.28811682      2.83546930
