28
CCOP(=S)(OCC)Oc1cnccn1
C      -1.98352573     -2.96486400      2.13241688
C      -1.63112627     -2.43737426      0.75651230
O      -1.46061145     -1.03222454      0.84357609
P      -0.69315226     -0.26411900     -0.36800421
S      -1.55943169     -0.45030101     -2.09990191
O      -0.58465467      1.21717516      0.27940540
C      -1.76918895      1.98059077      0.41988142
C      -1.47689895      3.16311304      1.32081967
O       0.79729150     -0.85311939     -0.17964942
C       1.86783802     -0.31092835     -0.83116757
C       3.11605221     -0.88493531     -0.64334988
N       4.23350637     -0.41773264     -1.25165748
C       4.04174965      0.65142870     -2.05723518
C       2.79389856      1.22478972     -2.24114509
N       1.68068585      0.75644619     -1.62993356
H      -2.89696924     -2.48953290      2.50534263
H      -2.13328204     -4.04786800      2.10910465
H      -1.18804816     -2.73342784      2.84851343
H      -0.71096374     -2.91084608      0.39997815
H      -2.44040294     -2.65930987      0.05442884
H      -2.09103250      2.33340102     -0.56454555
H      -2.56402366      1.36739982      0.85609555
H      -0.67027893      3.77621029      0.90553719
H      -2.36601133      3.78717932      1.44705744
H      -1.14241623      2.82182155      2.30614647
H       3.25359793     -1.74283515      0.00452979
H       4.92348424      1.03856092     -2.55525448
H       2.65391443      2.08130183     -2.89118857
