24
c1ccc2c(c1)ccc1ccccc12
C      -3.50724222     -0.37434976     -0.58543900
C      -2.77895512     -1.53593979     -0.79012190
C      -1.39403401     -1.53365789     -0.59725163
C      -0.68727999     -0.37226845     -0.19340934
C      -1.45812323      0.80168829      0.00861247
C      -2.84965426      0.78672797     -0.18849810
C      -0.83368725      1.98628915      0.40713601
C       0.54247936      2.03438187      0.61085492
C       1.33492541      0.89930303      0.42205370
C       2.72159116      0.98144093      0.63617382
C       3.54362214     -0.12792680      0.45826144
C       2.98684916     -1.33443168      0.06337115
C       1.60859131     -1.42871770     -0.15278882
C       0.73759801     -0.32246964      0.01750696
H      -4.58353096     -0.36895921     -0.73343601
H      -3.28189481     -2.44816297     -1.10008109
H      -0.87173361     -2.46991059     -0.77120145
H      -3.43709557      1.68934101     -0.03243508
H      -1.41527993      2.89213642      0.56484977
H       0.99024908      2.97619948      0.92095892
H       3.17564917      1.92044928      0.94641227
H       4.61369561     -0.04751812      0.62798718
H       3.61904937     -2.20698756     -0.07855511
H       1.22421117     -2.39665727     -0.46096109
