20
CSCC[C@H](N)C(=O)O
C       3.17952440      0.06076130      0.67759533
S       2.22812138     -1.35485526      1.28721876
C       0.56094318     -0.61398432      1.28265812
C      -0.03326464     -0.60002535     -0.12810084
C      -1.47960029     -0.09292419     -0.13932203
N      -2.13677136     -0.43799770     -1.44062080
C      -1.56061220      1.43848946      0.02971703
O      -0.91612038      2.10423044      0.82273515
O      -2.47669701      1.97332477     -0.82072558
H       3.03567500      0.92695711      1.32855757
H       2.88743485      0.31308335     -0.34437970
H       4.24180165     -0.19805421      0.67686409
H      -0.06562433     -1.22780878      1.93859266
H       0.61619050      0.38308302      1.72592141
H      -0.01064658     -1.62288111     -0.52802284
H       0.57952812      0.02148202     -0.79282648
H      -2.07334022     -0.54356297      0.66346200
H      -1.45499782     -0.28876415     -2.19391536
H      -2.29092457     -1.45156755     -1.45022421
H      -2.83061968      1.21101411     -1.34582578
