12
CN(C)C=O
C       0.98974263     -0.45924819     -0.83410339
N      -0.05054966      0.15714809     -0.03403930
C      -0.94689718     -0.71284000      0.69909899
C      -0.06688205      1.52390701      0.15206152
O       0.71599038      2.32656148     -0.33905628
H       0.52941310     -1.15906998     -1.53741476
H       1.56051061      0.28572197     -1.39478387
H       1.66859099     -1.00129496     -0.16929327
H      -0.36429313     -1.28964556      1.42319197
H      -1.70737472     -0.13587452      1.23246582
H      -1.43773405     -1.39242062     -0.00319611
H      -0.89051693      1.85705527      0.80506868
