8
ClC(Cl)C(Cl)(Cl)Cl
Cl      2.05647116      0.50554740     -0.66838727
C       0.71135123     -0.26405861      0.24697756
Cl      0.86673712     -2.04429149      0.03212944
C      -0.68711359      0.28450402     -0.13139297
Cl     -1.97107663     -0.47989187      0.88521612
Cl     -0.78562201      2.06077491      0.18721942
Cl     -1.10915754      0.00757781     -1.85617345
H       0.91841026     -0.07016217      1.30441115
