47
O=C(OCCCOCCCOC(=O)c1ccccc1)c1ccccc1
O       4.37896538     -1.95220294     -0.84858995
C       4.51852869     -1.04237686     -0.04060175
O       3.62217943     -0.05201803      0.21661823
C       2.38565605     -0.12365229     -0.51878675
C       2.51704923      0.64967591     -1.82751059
C       1.25909653      0.55966898     -2.68549556
O       0.11720336      0.89162897     -1.89165586
C      -1.07698581      0.95282880     -2.67032628
C      -2.26339520      1.14460638     -1.73526026
C      -2.45816198     -0.06794957     -0.82521354
O      -3.58735397      0.11615717      0.04776031
C      -4.79449103     -0.19845714     -0.48355796
O      -5.00472205     -0.50507167     -1.64621709
C      -5.86097787     -0.12436807      0.55306781
C      -5.58254296      0.12254147      1.90342840
C      -6.61810902      0.15078525      2.84894442
C      -7.93582985     -0.06586889      2.44553220
C      -8.22010980     -0.31498197      1.09963015
C      -7.18654269     -0.34240289      0.15759980
C       5.71764003     -0.89370928      0.82629259
C       6.72944338     -1.86458795      0.72922225
C       7.86399719     -1.77949073      1.53692321
C       7.99466454     -0.72592505      2.44491524
C       6.99565716      0.24604453      2.54235834
C       5.85838910      0.16496881      1.73676793
H       1.62362128      0.33678704      0.12228859
H       2.07481410     -1.16809991     -0.68439943
H       3.38054310      0.29249428     -2.40222999
H       2.72851462      1.69823573     -1.58563926
H       1.34447249      1.25651929     -3.52908447
H       1.14055740     -0.45567399     -3.07732507
H      -1.00994453      1.80327292     -3.35664950
H      -1.19462406      0.03712715     -3.25610817
H      -2.11649195      2.04007121     -1.11103616
H      -3.16927131      1.33165416     -2.32545293
H      -2.57274149     -0.99359047     -1.40663233
H      -1.58523310     -0.20781792     -0.17716157
H      -4.56258807      0.29118834      2.24128323
H      -6.39583354      0.33529103      3.90490131
H      -8.73974678     -0.05074953      3.18480156
H      -9.24407592     -0.49782438      0.78664766
H      -7.41857146     -0.54231584     -0.88473105
H       6.63504992     -2.69314337      0.02749463
H       8.64305608     -2.53747504      1.46085499
H       8.87621654     -0.66406085      3.07638838
H       7.10224963      1.06683237      3.24468531
H       5.09077921      0.93352458      1.83125898
