111
CC(=O)O[C@@]12CO[C@@H]1C[C@H](O)[C@@]1(C)C(=O)[C@H](O)C3=C(C)[C@@H](OC(=O)[C@H](O)[C@@H](NC(=O)OC(C)(C)C)c4ccccc4)C[C@@](O)([C@@H](OC(=O)c4ccccc4)[C@@H]12)C3(C)C
C      -1.65037532      1.89525063      2.98152026
C      -2.58861137      2.02934417      1.82257472
O      -3.46895104      2.87110979      1.77538081
O      -2.28873311      1.11379055      0.85862271
C      -3.15197501      0.98122887     -0.32148098
C      -4.68133637      0.99323942     -0.07093147
O      -4.86448905      2.16278682     -0.89398423
C      -3.43340719      2.30166884     -1.11611957
C      -3.16538154      2.44147568     -2.60906668
C      -2.36246699      1.27911219     -3.18009160
O      -2.35355053      1.39293746     -4.60190630
C      -2.86011393     -0.11767930     -2.71556376
C      -4.36765241     -0.30181476     -3.04169540
C      -2.12948712     -1.16681277     -3.62203822
O      -2.75488972     -1.80422359     -4.48740595
C      -0.60133087     -1.37837390     -3.55857285
O      -0.15802179     -2.36616791     -4.47553155
C      -0.15732426     -1.79577563     -2.18236116
C       0.68819877     -1.02308171     -1.45140366
C       1.54139878      0.06924821     -2.04729412
C       0.78446067     -1.17709811      0.06178824
O       0.99688502      0.14995142      0.59262950
C       1.46236155      0.23878282      1.86948570
O       1.52193995     -0.67981714      2.66831763
C       1.92959853      1.66886640      2.15209460
O       1.35601775      2.61431411      1.23275846
C       3.47507641      1.69640263      2.10891377
N       3.96588028      1.73952171      0.73534705
C       4.81080081      0.79661018      0.23490510
O       5.11310450     -0.23882644      0.80873470
O       5.23709374      1.19327652     -0.98568762
C       6.18252521      0.38354814     -1.73328593
C       5.61445296     -1.00044652     -2.06300357
C       7.52171435      0.28393851     -0.99666281
C       6.39461606      1.14937261     -3.04845968
C       4.11682497      2.83991778      2.88390041
C       3.55251410      4.12151805      2.95615768
C       4.17951631      5.14268283      3.67570086
C       5.38888021      4.90158241      4.32526673
C       5.98175095      3.64407350      4.23909420
C       5.35480985      2.62252317      3.52052227
C      -0.46700613     -1.80830563      0.72275797
C      -1.48218791     -2.52451432     -0.21468324
O      -1.90857568     -3.69061524      0.53699811
C      -2.78584997     -1.61645257     -0.49330131
O      -3.47020737     -1.44281624      0.78379481
C      -4.36005618     -2.41352303      1.12691551
O      -4.65163441     -3.37084071      0.42376318
C      -4.92563200     -2.18795876      2.48014032
C      -6.03084287     -2.95776968      2.86869325
C      -6.59261273     -2.78893387      4.13297600
C      -6.04297649     -1.86257867      5.02022334
C      -4.93244398     -1.10681531      4.64689921
C      -4.37182793     -1.26650453      3.37865529
C      -2.55374810     -0.20972496     -1.16121342
C      -0.78326818     -3.03950426     -1.51737722
C      -1.76168375     -3.90256212     -2.36649917
C       0.36149038     -4.05548375     -1.20308235
H      -2.19374823      2.09747384      3.90925353
H      -0.82997808      2.60200754      2.86446779
H      -1.26386822      0.87452077      3.04547493
H      -5.01648672      1.16729425      0.95613004
H      -5.25071730      0.14047322     -0.45107581
H      -3.06461874      3.20500836     -0.61473760
H      -2.61602273      3.37303740     -2.80146341
H      -4.10514158      2.56905606     -3.16091524
H      -1.31945136      1.40892150     -2.86696623
H      -3.26910509      1.39664595     -4.93103184
H      -4.55806479     -0.25013103     -4.12065989
H      -4.73357814     -1.27528403     -2.70419298
H      -5.01332566      0.45959107     -2.61201416
H      -0.16665692     -0.43641883     -3.89366663
H      -0.90608535     -2.52130486     -5.08391058
H       1.76268104     -0.09377918     -3.10566457
H       1.05553041      1.04203178     -1.93450162
H       2.51079794      0.10595770     -1.54617040
H       1.68510444     -1.76186747      0.28034398
H       1.55931519      1.92885196      3.14878776
H       1.53333368      2.24978471      0.34392304
H       3.82989210      0.76994111      2.57764853
H       3.97169797      2.62112125      0.24123167
H       4.61681841     -0.91755599     -2.51021211
H       6.26271948     -1.53989727     -2.76152581
H       5.50414521     -1.62529899     -1.16943887
H       7.44153572     -0.29802297     -0.07147015
H       8.28671663     -0.19324335     -1.61652652
H       7.88059379      1.27858774     -0.70781348
H       7.08257080      0.62434725     -3.71855454
H       6.79676310      2.15008463     -2.86020116
H       5.44246196      1.29507853     -3.57197500
H       2.61506806      4.35334999      2.45529248
H       3.72307064      6.12809056      3.73108960
H       5.87308231      5.69331819      4.89075451
H       6.93013855      3.45285194      4.73838137
H       5.83332045      1.64830127      3.46287307
H      -0.09867226     -2.53466130      1.45999326
H      -0.99035503     -1.06981475      1.33769267
H      -2.76645959     -4.00397230      0.18788552
H      -3.46803832     -2.17214002     -1.14078133
H      -6.45632247     -3.68716798      2.18263306
H      -7.45047066     -3.38794498      4.42736248
H      -6.47873708     -1.73869744      6.00817427
H      -4.50436309     -0.39529924      5.34955937
H      -3.49489008     -0.68484242      3.11374133
H      -1.48927789     -0.00486241     -1.08987967
H      -1.29767160     -4.24983904     -3.29641077
H      -2.69365976     -3.40002080     -2.62350207
H      -2.06020447     -4.80968707     -1.82431402
H       1.12516849     -3.68125056     -0.52245946
H      -0.02165094     -4.97193068     -0.74698411
H       0.88183503     -4.35384758     -2.12050283
