19
OCCCCCO
O       3.63862890     -0.72515194      0.12598924
C       2.36847291     -0.53931005      0.73694253
C       1.31206133     -0.28992618     -0.33160045
C      -0.07163990     -0.08484335      0.28205576
C      -1.12983316      0.15326785     -0.79918203
C      -2.51289975      0.40104931     -0.20890892
O      -2.94806321     -0.74818356      0.50249789
H       3.84332892      0.08223073     -0.37540816
H       2.13589639     -1.44064490      1.31245383
H       2.43888134      0.30335223      1.43225661
H       1.59524718      0.58677968     -0.92732682
H       1.29741546     -1.13556607     -1.03042518
H      -0.04614525      0.77297822      0.96502554
H      -0.33906726     -0.96520042      0.87854671
H      -0.84354783      1.01438288     -1.41396236
H      -1.16903151     -0.72532271     -1.45461205
H      -3.23088318      0.60357990     -1.00989133
H      -2.49937767      1.25541761      0.47535002
H      -3.83944371     -0.55538734      0.84019915
