8
O=C([O-])C(Cl)(Cl)Cl.[Na+]
O       1.40819443     -0.39493649     -1.30672563
C       0.96547566      0.16044285     -0.25320242
O       1.62302176      0.91437601      0.53520850
C      -0.53752207     -0.09824202      0.12767353
Cl     -0.63327746     -0.87441956      1.75271249
Cl     -1.43384009      1.46570377      0.18301041
Cl     -1.39205223     -1.17292456     -1.03867688
Na      0.00000000      0.00000000      0.00000000
