33
CCCCC/C(C=O)=C/c1ccccc1
C       5.66596613     -0.64148762      0.34528369
C       4.22092525     -0.96071232     -0.00315824
C       3.29259572      0.20557503      0.33483621
C       1.83937853     -0.11963561     -0.01715936
C       0.91109824      1.05039567      0.32433777
C      -0.52947506      0.74680762     -0.00421519
C      -0.92731021      0.88047987     -1.43590833
O      -0.13683456      1.22146161     -2.30919556
C      -1.42128141      0.40621450      0.94486243
C      -2.83713080      0.10743970      0.72751261
C      -3.24259428     -1.19895111      0.43524308
C      -4.59169997     -1.47963006      0.21246169
C      -5.53794227     -0.45759025      0.28083512
C      -5.13770345      0.84598455      0.57264787
C      -3.78928075      1.12964870      0.79591796
H       6.31216377     -1.48878903      0.09544593
H       6.02014817      0.23174945     -0.21180586
H       5.77518063     -0.43467712      1.41469399
H       4.15198143     -1.19407385     -1.07203220
H       3.90827140     -1.85676352      0.54551034
H       3.36884317      0.43755843      1.40414044
H       3.61182512      1.10013423     -0.21372190
H       1.76966200     -0.35848356     -1.08534261
H       1.52202666     -1.01532556      0.53178115
H       1.23020452      1.95590595     -0.20683630
H       1.00851609      1.28491370      1.39258196
H      -1.97792044      0.65873153     -1.68007379
H      -1.10619627      0.32812193      1.98377438
H      -2.51406265     -2.00455293      0.37827342
H      -4.90493869     -2.49557929     -0.01461296
H      -6.58847550     -0.67731185      0.10708730
H      -5.87631989      1.64187155      0.62606662
H      -3.48962064      2.15056965      1.02152486
