20
COCCOCCO
C       3.75213262     -0.33755311     -0.53926169
O       2.69577769     -0.00399276      0.35186370
C       1.42171431     -0.12964710     -0.27804369
C       0.32754232      0.23534680      0.71902434
O      -0.94934507      0.11428491      0.08971878
C      -2.00899354      0.45210085      0.99524552
C      -3.33124132      0.30309601      0.25044160
O      -3.48816643     -1.04585477     -0.18729824
H       4.70028287     -0.22408695     -0.00693264
H       3.75270052      0.33583902     -1.40178908
H       3.65970389     -1.37613881     -0.87123871
H       1.36597909      0.53324946     -1.14989163
H       1.27525056     -1.15794707     -0.62993179
H       0.38164377     -0.42947879      1.58943403
H       0.47553721      1.26269659      1.07285417
H      -1.97850992     -0.23719812      1.84638134
H      -1.88623121      1.48259684      1.34460582
H      -3.35335457      0.94279783     -0.63735083
H      -4.17583317      0.55795122      0.89632225
H      -2.63658961     -1.27806204     -0.60620067
