56
COCCOC(=O)C1=C(C)NC(C)=C(C(=O)OC(C)C)C1c1cccc([N+](=O)[O-])c1
C       6.99690388      0.83668125      0.61090250
O       5.87914690      0.74386770     -0.26235450
C       5.39176307     -0.60079249     -0.35206929
C       4.18174491     -0.63121583     -1.28543911
O       3.06604673      0.07937231     -0.71815039
C       2.36761597     -0.59643477      0.22517795
O       2.57765878     -1.73977730      0.59991971
C       1.23204859      0.21943109      0.69845329
C       1.36611969      1.47610665      1.17961252
C       2.67832492      2.20372907      1.32943389
N       0.24296909      2.15959059      1.62271600
C      -1.02544879      1.60591349      1.72008516
C      -2.06370629      2.46030712      2.40100947
C      -1.24147565      0.35328452      1.25804362
C      -2.54805937     -0.33379500      1.33025479
O      -2.68552593     -1.47249563      1.74839725
O      -3.51431597      0.44986407      0.79046860
C      -4.82949528     -0.12879493      0.71586934
C      -5.57582685      0.60289366     -0.39284065
C      -5.54204700      0.04616229      2.05225744
C      -0.12103676     -0.47833657      0.64473330
C      -0.46859338     -0.89314868     -0.79096259
C      -0.64760544      0.06804784     -1.80296361
C      -0.96394419     -0.31578017     -3.10761312
C      -1.10724321     -1.66581120     -3.42482392
C      -0.93163109     -2.63135429     -2.42544934
N      -1.08132162     -4.05372550     -2.75930058
O      -0.88171070     -4.88346975     -1.86153121
O      -1.39729483     -4.34240608     -3.92316612
C      -0.61390890     -2.25335354     -1.11300177
H       7.32750439      1.87867175      0.63740052
H       6.71833708      0.53463038      1.62484875
H       7.82132377      0.21652251      0.24559885
H       6.18280404     -1.24030811     -0.75869000
H       5.12258987     -0.94765198      0.65177294
H       3.89021978     -1.66061585     -1.52501055
H       4.42140671     -0.12744483     -2.22870267
H       3.54398696      1.53684137      1.29885457
H       2.72011113      2.71363257      2.29886125
H       2.78346744      2.95684929      0.54225768
H       0.38990132      3.07432014      2.04356032
H      -1.62419060      2.98576359      3.25767576
H      -2.45229306      3.20987651      1.70267069
H      -2.90218143      1.87935145      2.79655382
H      -4.76618981     -1.19107564      0.45094038
H      -5.05285629      0.48267200     -1.34764506
H      -5.61957623      1.67920093     -0.19223704
H      -6.59637484      0.22393744     -0.50597820
H      -5.02203250     -0.50153228      2.84590959
H      -5.55415808      1.09943802      2.35539166
H      -6.57271876     -0.31894963      2.00361420
H      -0.02986051     -1.38403661      1.26255494
H      -0.53981770      1.12909915     -1.57743685
H      -1.09736899      0.44083779     -3.87751597
H      -1.35252608     -1.94699437     -4.44673405
H      -0.47965888     -3.00759549     -0.33744874
