36
CCCN(CCCl)c1c([N+](=O)[O-])cc(C(F)(F)F)cc1[N+](=O)[O-]
C      -3.45347711     -0.01120015     -0.98980422
C      -3.06960194     -1.05252912      0.05030549
C      -1.56300376     -1.31058715      0.11698843
N      -0.80438753     -0.10832433      0.54082217
C      -0.90457738      0.25295096      1.98359633
C      -1.80160908      1.47632217      2.18888196
Cl     -1.99011427      1.82636572      3.92630496
C       0.50848454     -0.05697747      0.02347954
C       0.85238691      0.92894167     -0.92343324
N      -0.14723707      1.87750890     -1.36796339
O      -0.68823695      1.64633851     -2.45742026
O      -0.32953208      2.87560796     -0.65876530
C       2.13031263      1.04904723     -1.50392399
C       3.14901290      0.16013134     -1.14224321
C       4.52112840      0.25467758     -1.77030791
F       5.50879456     -0.17444745     -0.93997809
F       4.61756684     -0.49660895     -2.89811856
F       4.85129054      1.52445270     -2.12681456
C       2.85069802     -0.84755114     -0.21565147
C       1.55936898     -0.93994162      0.34569757
N       1.35792346     -2.03153220      1.27411783
O       1.46894825     -1.77537486      2.47893764
O       1.12857597     -3.14382745      0.78244270
H      -4.54298821      0.07707691     -1.04868077
H      -3.05352087      0.97452096     -0.73633089
H      -3.08300631     -0.29107162     -1.98099073
H      -3.45521564     -0.75341331      1.03037782
H      -3.56926777     -1.99513581     -0.20425518
H      -1.22864043     -1.64302706     -0.87502278
H      -1.38304006     -2.13811950      0.81267188
H      -1.29442523     -0.59859629      2.55533197
H       0.08302680      0.48743783      2.40158993
H      -2.80105861      1.32596200      1.77506138
H      -1.36960044      2.36414986      1.72102080
H       2.32389706      1.83326618     -2.23762748
H       3.62112487     -1.56649301      0.06970363
