20
Cc1ccc([N+](=O)[O-])c(C)c1
C       2.99504852     -0.40615441     -0.19283147
C       1.55822383      0.01451116     -0.07553165
C       1.23473462      1.33808630      0.24434494
C      -0.09855091      1.72297640      0.37682978
C      -1.11380119      0.77213982      0.19919464
N      -2.49190070      1.23434661      0.33069040
O      -2.76094971      1.93445531      1.31715771
O      -3.29311988      0.91582633     -0.55835567
C      -0.82067424     -0.57336953     -0.08746863
C      -1.87605486     -1.62870487     -0.26565912
C       0.53099172     -0.93118516     -0.22864069
H       3.61912887      0.42521956     -0.53714580
H       3.10561486     -1.21740051     -0.92003187
H       3.36490161     -0.74748913      0.77885677
H       2.02064899      2.07722060      0.38773725
H      -0.33660678      2.75768646      0.61515262
H      -2.35229653     -1.52807543     -1.24568080
H      -1.44527505     -2.63408026     -0.20264919
H      -2.63302106     -1.56208659      0.52238037
H       0.79295791     -1.96392268     -0.45834959
