55
C[C@]12C[C@H](O)[C@@]3(F)[C@@H](CCC4=CC(=O)C=C[C@@]43C)[C@@H]1C[C@@H](O)[C@]2(O)C(=O)CO
C       1.89466979     -0.19191343      1.65696553
C       1.66271417     -0.05707360      0.12884199
C       1.19405153      1.37139927     -0.22213206
C      -0.22938794      1.69577579      0.28736717
O      -0.18368932      1.92226992      1.69228141
C      -1.28842432      0.62052384     -0.11109774
F      -1.35983529      0.69511331     -1.49504677
C      -0.79787716     -0.83232355      0.20614810
C      -1.78873362     -1.88220376     -0.33333793
C      -3.20909596     -1.65243283      0.17160688
C      -3.65679777     -0.24603485     -0.13195147
C      -4.74803908     -0.02738371     -0.88699198
C      -5.18089981      1.33493192     -1.25847823
O      -6.18554411      1.52334001     -1.93197700
C      -4.35479558      2.45926329     -0.78288192
C      -3.26751610      2.24720962     -0.02998556
C      -2.75886396      0.87788057      0.41940466
C      -2.88189420      0.86502498      1.96048095
C       0.59308967     -1.03561979     -0.41600820
C       1.25692092     -2.40667848     -0.29480803
C       2.74476271     -2.13423099     -0.59204041
O       3.10525259     -2.68667116     -1.86483335
C       2.91044562     -0.57887817     -0.64821452
O       2.84690092     -0.17557073     -2.02416158
C       4.26269000     -0.14284003     -0.06346285
O       4.87119211     -0.80677240      0.78139625
C       4.84091399      1.17790023     -0.55575451
O       5.87158234      1.63949207      0.30737833
H       2.34249092     -1.15191651      1.92951201
H       0.97721417     -0.11001106      2.24249241
H       2.57241308      0.59170427      2.01288378
H       1.19548848      1.51000113     -1.31051160
H       1.90258368      2.09950427      0.19095027
H      -0.51267440      2.64814023     -0.17498987
H       0.42459285      2.66818116      1.85242478
H      -0.73438752     -0.97115516      1.29021873
H      -1.47066331     -2.88824300     -0.03212920
H      -1.78681723     -1.86714827     -1.43234116
H      -3.87378776     -2.39143636     -0.29147208
H      -3.25882800     -1.83239532      1.25141911
H      -5.36074968     -0.82931567     -1.28319959
H      -4.68240678      3.45151251     -1.06759886
H      -2.71416560      3.11875810      0.31141234
H      -3.93366808      0.80871976      2.27131794
H      -2.48002944      1.77462943      2.41953831
H      -2.36887515      0.01417509      2.41775276
H       0.47499272     -0.85700911     -1.49696946
H       0.82030931     -3.13248792     -0.98566366
H       1.14130128     -2.79420197      0.72190795
H       3.36623928     -2.61278104      0.17092307
H       3.06498641     -3.65590967     -1.77363996
H       3.07305248     -0.98462484     -2.53567849
H       4.06546740      1.94255489     -0.58561389
H       5.26110553      1.03705068     -1.55364606
H       6.33102324      0.84020701      0.62892882
