21
Cn1c(=O)ccc2ccccc21
C      -2.24586639     -1.32511999      0.22417032
N      -1.39148002     -0.15252204      0.14122821
C      -1.98846865      1.10130304      0.20643047
O      -3.19621766      1.29665218      0.33015499
C      -1.09653127      2.28219176      0.11969032
C       0.22657238      2.16245182     -0.01552282
C       0.83372406      0.83763010     -0.08200926
C       2.22249370      0.71425317     -0.22392543
C       2.81295788     -0.54643019     -0.28848749
C       2.01922552     -1.68664709     -0.21160956
C       0.63316223     -1.57002701     -0.06999262
C       0.02277072     -0.30863387     -0.00339801
H      -1.96141456     -1.92194482      1.09655704
H      -3.30043917     -1.05600994      0.33255104
H      -2.14360771     -1.91568743     -0.69176882
H      -1.58375948      3.24796144      0.17270361
H       0.86055909      3.03950377     -0.07704586
H       2.85419299      1.59720713     -0.28519505
H       3.89055081     -0.63839964     -0.39859171
H       2.47756680     -2.67147165     -0.26174702
H       0.05400870     -2.48626073     -0.01419236
