20
C1CCCNCC1
C      -0.48130597     -1.44731827     -0.31470272
C       0.92298540     -1.33770956      0.27665145
C       1.67561033     -0.05390229     -0.06314573
C       0.94040315      1.24518702      0.26410348
N      -0.13274496      1.49340228     -0.68863165
C      -1.43025928      0.94271272     -0.31280293
C      -1.45363501     -0.45262813      0.31342227
H      -0.84890411     -2.45988938     -0.10601673
H      -0.45618523     -1.34131028     -1.40536514
H       0.86726384     -1.44259838      1.36758467
H       1.51846177     -2.18737541     -0.07999860
H       1.94531451     -0.06557575     -1.12751553
H       2.62527761     -0.06225471      0.48678205
H       1.66552061      2.06197615      0.16119663
H       0.59567625      1.27477564      1.30422965
H      -0.23771096      2.49734604     -0.83455739
H      -1.92846452      1.63522647      0.37718096
H      -2.04653947      0.92569508     -1.21969934
H      -1.26786092     -0.37985133      1.39231299
H      -2.47290305     -0.84590789      0.20897162
