90
c1cc(CN2CCCNCCNCCCNCC2)ccc1CN1CCCNCCNCCCNCC1
C      -0.38625914      0.90543341     -1.03762946
C       0.94438595      0.81681321     -0.61456239
C       1.26842290      0.84003770      0.74847156
C       2.69516048      0.85301254      1.27227739
N       3.74461693      0.70693798      0.24840202
C       4.04751840     -0.70670697     -0.03351823
C       4.63565299     -0.89779464     -1.44307196
C       5.15019358     -2.32543014     -1.69213223
N       6.41881795     -2.61636166     -1.01047044
C       7.57569461     -2.10326697     -1.76830315
C       8.78204037     -1.76510190     -0.85598853
N       8.33612173     -1.01307300      0.32217068
C       9.41939825     -0.29125253      0.99036798
C       8.80439709      0.62862755      2.05140719
C       7.99910811      1.78051018      1.42463591
N       6.80020382      2.12158319      2.20297159
C       5.67246362      1.21174955      1.91491896
C       4.94147280      1.51154280      0.57496230
C       0.21896097      0.94281159      1.67732205
C      -1.10844995      1.04536433      1.25358828
C      -1.42861319      1.03190303     -0.10974059
C      -2.84548954      1.28104188     -0.59084085
N      -3.88560860      0.63059709      0.21741027
C      -5.19731586      1.27098417      0.01669894
C      -5.59317897      2.13351561      1.21923545
C      -6.88847239      2.94136466      0.99275541
N      -8.02050469      2.22617505      0.39454463
C      -8.59707744      1.19576656      1.27498166
C      -9.32118404      0.08567291      0.46095887
N      -8.44371560     -0.39517741     -0.61104513
C      -8.75603373     -1.73647577     -1.09300594
C      -7.50531936     -2.28630299     -1.79706498
C      -6.40915210     -2.66588793     -0.78425144
N      -5.05930539     -2.67938376     -1.36951984
C      -4.45521855     -1.32921364     -1.38628911
C      -3.95532361     -0.83063644      0.00420111
H      -0.59939751      0.89814947     -2.10536055
H       1.73082839      0.76580366     -1.36525501
H       2.80648886      0.09130065      2.05525605
H       2.80108661      1.83144124      1.76381322
H       4.69311978     -1.13453132      0.73948413
H       3.12125721     -1.29864268     -0.00815897
H       5.44132781     -0.18344410     -1.63680425
H       3.85360967     -0.67748413     -2.17842398
H       5.25537489     -2.50126605     -2.76872668
H       4.39981441     -3.04140139     -1.33241382
H       6.41999968     -2.13313605     -0.11215193
H       7.88190350     -2.84417699     -2.51381656
H       7.31121845     -1.18598823     -2.30972419
H       9.50046807     -1.18291259     -1.44797342
H       9.28787960     -2.68584731     -0.53758052
H       7.92828545     -1.66616315      0.99057330
H      10.00325800      0.30323176      0.27836436
H      10.09651949     -1.00378451      1.47060587
H       9.60723625      1.05216756      2.67160420
H       8.18685801      0.02810016      2.73216043
H       7.74955175      1.59726562      0.37655571
H       8.64913237      2.66522462      1.41377774
H       6.51421760      3.07195929      1.96900876
H       4.96392364      1.33287736      2.73997819
H       6.00439206      0.16851017      1.95540289
H       5.64950761      1.44239168     -0.25534565
H       4.63609578      2.56740042      0.57772387
H       0.42960425      0.98041583      2.74434349
H      -1.89894646      1.16078563      1.99428313
H      -2.97429781      2.37020429     -0.54609834
H      -2.94733605      0.99985458     -1.64644075
H      -5.96647374      0.50211572     -0.09433305
H      -5.22326429      1.86316674     -0.90640927
H      -5.70497689      1.49267962      2.10249114
H      -4.78815731      2.84281260      1.45059389
H      -7.19672294      3.41222470      1.93501486
H      -6.64862940      3.76980419      0.31330580
H      -7.70067633      1.75678178     -0.45088048
H      -9.30754552      1.65744287      1.97059519
H      -7.81835377      0.70737357      1.87251067
H     -10.25245577      0.47236485      0.03002689
H      -9.58015997     -0.72123018      1.15857215
H      -8.49745938      0.24899135     -1.39937114
H      -9.59237839     -1.68863535     -1.79793315
H      -9.03733893     -2.41198001     -0.27798950
H      -7.78195408     -3.17858178     -2.37868829
H      -7.14529065     -1.54519480     -2.52553069
H      -6.44698815     -2.03252051      0.10713577
H      -6.62768913     -3.68278807     -0.43125715
H      -4.46440820     -3.28398039     -0.80105922
H      -5.15395738     -0.62010806     -1.84329457
H      -3.59485482     -1.35906120     -2.06623964
H      -4.59595541     -1.22741247      0.80121626
H      -2.97569929     -1.28194990      0.20430533
