17
CC(C)(C)C
C      -0.37364729      1.47678216     -0.19173451
C       0.00000029     -0.00000004      0.00000030
C      -0.65913460     -0.84189442     -1.10182377
C       1.52525792     -0.15650884     -0.07971569
C      -0.49247562     -0.47837919      1.37327418
H      -1.45873051      1.62064253     -0.13980005
H       0.08316897      2.10443820      0.58167735
H      -0.03446982      1.84784310     -1.16542447
H      -0.41028938     -1.90334682     -0.99139396
H      -0.32641139     -0.52325311     -2.09608845
H      -1.75067209     -0.75045218     -1.07046385
H       1.82348775     -1.20246591      0.05382157
H       2.02500498      0.43422307      0.69622743
H       1.90736458      0.17762696     -1.05087320
H      -1.58024510     -0.37871607      1.46059040
H      -0.23986522     -1.53161357      1.53965948
H      -0.03834348      0.10507413      2.18206725
