9
OCCCl
O      -1.34076997      0.71875123     -0.50601580
C      -0.63482934     -0.36829296      0.08606770
C       0.86727003     -0.21934157     -0.10915923
Cl      1.46874419      1.20502485      0.78276413
H      -0.98941226      1.53533343     -0.10406734
H      -0.98209631     -1.28654566     -0.39733770
H      -0.90255912     -0.42398426      1.14640725
H       1.40049370     -1.09739443      0.26461037
H       1.11315910     -0.06355063     -1.16326937
