16
Nc1nc2nc[nH]c2c(=O)[nH]1
N      -2.90543115     -0.49900332     -0.58283637
C      -1.58578276     -0.28128479     -0.33726590
N      -0.96315060      0.65429223     -0.99257328
C       0.38477170      0.79178809     -0.65613666
N       1.26855810      1.69418427     -1.17005597
C       2.40687543      1.43793307     -0.55820335
N       2.28356076      0.40453279      0.33270569
C       0.98618022     -0.00692277      0.27395118
C       0.30636144     -1.03067004      0.97255574
O       0.81576648     -1.78158113      1.79553392
N      -1.01883387     -1.09302133      0.61659156
H      -3.29108236      0.24498889     -1.15987448
H      -3.48194422     -0.68018145      0.22823462
H       3.34163996      1.95944199     -0.71686404
H       3.01037412      0.01862574      0.92100001
H      -1.55786326     -1.83312223      1.03323733
