39
COc1cc(OC)n2nc(S(=O)(=O)Nc3c(Cl)ccc(C)c3Cl)nc2n1
C      -5.18539491      1.90484180      3.07215936
O      -5.30599179      1.21874751      1.81977403
C      -4.18842758      0.59312983      1.37769257
C      -4.49744855     -0.05624352      0.08388584
C      -3.47772028     -0.72719947     -0.48781787
O      -3.54388132     -1.40638530     -1.69165304
C      -4.77775240     -1.40686542     -2.39854665
N      -2.23541967     -0.74838660      0.18228175
N      -1.07536478     -1.34817385     -0.18431882
C      -0.24658355     -1.01685791      0.82297165
S       1.45302716     -1.51236962      0.86298598
O       2.13188354     -0.55676109      1.71448727
O       1.40566325     -2.92500017      1.18649072
N       2.09400904     -1.42043124     -0.72473146
C       3.04491232     -0.34770158     -0.92680213
C       2.61927255      0.96700665     -1.16707580
Cl      0.95314247      1.36901331     -1.38521854
C       3.55186735      2.00027779     -1.27532118
C       4.91505620      1.73601640     -1.13537242
C       5.36954534      0.43288256     -0.88784636
C       6.84568397      0.18681717     -0.73609123
C       4.42426774     -0.60461855     -0.78013049
Cl      4.95343425     -2.23370728     -0.48311048
N      -0.81985007     -0.25738826      1.81812476
C      -2.05592583     -0.09178421      1.40990285
N      -3.06696308      0.59377100      2.01699881
H      -4.93382184      1.20096315      3.87148175
H      -6.15402008      2.35730765      3.30182293
H      -4.43893388      2.70198314      3.00139420
H      -5.49441092      0.04008621     -0.31793617
H      -4.64040633     -1.98654882     -3.31610773
H      -5.56548635     -1.88780637     -1.80974535
H      -5.06651412     -0.38951375     -2.68161921
H       2.48090413     -2.34547272     -0.92864920
H       3.22237125      3.01939642     -1.46596465
H       5.62166185      2.56055976     -1.21830728
H       7.19690733     -0.51441165     -1.49980166
H       7.42054810      1.11180546     -0.85344662
H       7.06615949     -0.21097842      0.25966491
