29
O=C(OCc1ccccc1)c1ccccc1O
O      -0.75747954     -1.90359462     -0.56583020
C      -0.91760318     -0.69100972     -0.52091840
O      -0.10145030      0.24941314     -1.04841886
C       1.09113939     -0.23856683     -1.67494907
C       2.24087955     -0.12912605     -0.70842582
C       2.91873210      1.08669175     -0.54211900
C       3.97034297      1.19104492      0.36977206
C       4.34811591      0.08509934      1.12914050
C       3.67258153     -1.12483656      0.98106589
C       2.62130758     -1.23141180      0.06937743
C      -2.09451028     -0.07618895      0.14467753
C      -2.23904298      1.31682242      0.24280424
C      -3.35819490      1.86805862      0.87323755
C      -4.33913111      1.03558924      1.40998457
C      -4.20384317     -0.34923478      1.32033100
C      -3.08785964     -0.90205670      0.69329090
O      -3.04055373     -2.27137427      0.65663118
H       1.28326138      0.39116694     -2.55147889
H       0.98160807     -1.26085109     -2.05736237
H       2.62786698      1.96050114     -1.12082605
H       4.49264003      2.13645708      0.49093268
H       5.16547020      0.16729612      1.84069723
H       3.96093325     -1.98556151      1.57895106
H       2.09461752     -2.17931676     -0.02761549
H      -1.48655339      1.98818676     -0.16377458
H      -3.46353879      2.94803010      0.94669421
H      -5.20962364      1.46392110      1.90087182
H      -4.96628081     -1.00049685      1.74011510
H      -2.20383100     -2.54465216      0.22053710
