27
C=C(C)C1CC=C(C)C(O)C1
C       2.52746031     -0.36160393      2.10890093
C       2.00567243      0.42026134      1.14765635
C       2.83803036      1.53565211      0.56120819
C       0.58223390      0.30799385      0.59740510
C      -0.41081600     -0.48848464      1.47664789
C      -1.74356438     -0.71187606      0.81715603
C      -1.94675194     -0.58242389     -0.50622665
C      -3.29553229     -0.80809194     -1.12886729
C      -0.82990709     -0.22195948     -1.45452439
O      -1.07051092      1.09630737     -1.94237677
C       0.57152283     -0.27689533     -0.82840545
H       1.98019034     -1.17225275      2.57567395
H       3.54518794     -0.21672026      2.46207347
H       2.32170283      2.49463385      0.67352508
H       3.81085254      1.62873254      1.05620297
H       3.02739016      1.36275655     -0.50212171
H       0.19266352      1.33586323      0.54770818
H      -0.56797266      0.05194997      2.41818647
H      -0.01388114     -1.47799638      1.73125122
H      -2.56270912     -1.00164085      1.47177123
H      -3.24309770     -1.61551018     -1.86634484
H      -3.64305038      0.10051674     -1.63071195
H      -4.04988719     -1.08577180     -0.38511960
H      -0.84341440     -0.89340790     -2.32052147
H      -1.36306537      1.63274822     -1.18605399
H       1.27035017      0.26807502     -1.47355871
H       0.91090327     -1.32085541     -0.79050733
