13
COCOC
C      -1.86178078      0.26242646      0.06394403
O      -0.73128564      0.66106173     -0.69958737
C       0.16390507     -0.42319553     -0.91860130
O       0.80717205     -0.85699735      0.27428225
C       1.71347035      0.12050417      0.76725689
H      -2.51839659      1.12897864      0.18037802
H      -2.41745311     -0.52618484     -0.45269571
H      -1.56015981     -0.07767844      1.05910703
H       0.91380373     -0.11156637     -1.65441644
H      -0.37772836     -1.27255516     -1.35000178
H       2.49311326      0.33083556      0.02866771
H       2.18856642     -0.27737520      1.66813999
H       1.18677341      1.04174635      1.03352667
