13
OCc1ccco1
O       2.14648029      1.26056482      0.21033341
C       1.76859972     -0.07195792     -0.11367404
C       0.29040017     -0.13914006     -0.08888371
C      -0.66817070     -0.40822380     -1.04301591
C      -1.92015090     -0.31116854     -0.38898543
C      -1.64621841      0.01284040      0.91888518
O      -0.30642057      0.12152307      1.11175648
H       1.60806962      1.50784719      0.98453842
H       2.16692148     -0.31566935     -1.10244818
H       2.20691576     -0.75312883      0.62154183
H      -0.48433841     -0.64078034     -2.08282192
H      -2.90184078     -0.45574326     -0.81758581
H      -2.26024729      0.19303661      1.79035970
