17
CC1(C)C(=O)N(Cl)C(=O)N1Cl
C      -1.38652996      0.19026793     -1.07066781
C      -0.36177267     -0.09467860      0.02414158
C      -0.94048789     -0.94785085      1.14980388
C       0.85992831     -0.79997280     -0.58277269
O       0.81857979     -1.89317402     -1.13479786
N       1.95732362     -0.00666380     -0.39659196
Cl      3.53386597     -0.41175024     -0.92090771
C       1.63884516      1.15268104      0.26161272
O       2.40089277      2.05716534      0.57213845
N       0.26841305      1.10911238      0.51456354
Cl     -0.56750987      2.36819083      1.32782999
H      -1.77146856     -0.73968401     -1.50394663
H      -0.94495532      0.77290758     -1.88775353
H      -2.23838034      0.75873655     -0.68219871
H      -1.76951665     -0.43761416      1.65188282
H      -1.31495887     -1.90451140      0.76863371
H      -0.18226854     -1.17316175      1.90903019
