11
ClCCCCl
Cl     -2.11477622      1.04698706      0.22805484
C      -1.10670356     -0.38242544      0.55550108
C       0.05404234     -0.49133442     -0.42759409
C       1.07901235      0.63418310     -0.33640368
Cl      1.93102266      0.62364052      1.22584438
H      -1.75539556     -1.25878654      0.46182172
H      -0.76741631     -0.32725185      1.59332215
H       0.55938524     -1.45203198     -0.26718441
H      -0.34231048     -0.52153346     -1.45035255
H       0.62522034      1.62004527     -0.46824059
H       1.83791921      0.50850773     -1.11476885
