17
CC(C)COC=O
C      -1.01618353     -1.39764242      0.21179704
C      -0.67972009      0.07745871      0.44113272
C      -1.80169029      0.96647225     -0.09108615
C       0.65667706      0.45369984     -0.21127221
O       1.70825122     -0.30828368      0.39854772
C       2.93862974     -0.06581553     -0.11661869
O       3.21225779      0.71334991     -1.01485308
H      -0.25025505     -2.05019961      0.64321955
H      -1.09301960     -1.62532552     -0.85685975
H      -1.97164585     -1.65454163      0.68160718
H      -0.59392141      0.22991111      1.52460708
H      -2.75372964      0.72304561      0.39231604
H      -1.92894684      0.84235255     -1.17191908
H      -1.58790110      2.02224624      0.10610144
H       0.85713871      1.52107067     -0.05771499
H       0.62793205      0.24430613     -1.28783772
H       3.67612684     -0.69210464      0.40883290
