21
CC(C)c1ccccc1
C      -1.95373577      0.81245862      1.03744881
C      -1.31885837     -0.36964584      0.30080048
C      -2.02393752     -0.62276624     -1.03407185
C       0.17523052     -0.17380205      0.11447849
C       0.69124626      0.89072377     -0.64053911
C       2.06944635      1.05120321     -0.79843292
C       2.95014230      0.15059659     -0.20431819
C       2.45350027     -0.91101026      0.54801960
C       1.07549689     -1.07256456      0.70664971
H      -3.01286358      0.61712357      1.23750158
H      -1.89088487      1.73913027      0.45665128
H      -1.45764111      0.98673926      1.99877039
H      -1.47916255     -1.26011649      0.92318475
H      -1.96398514      0.24462627     -1.70042942
H      -3.08438393     -0.84506615     -0.87294008
H      -1.57812815     -1.47651771     -1.55655148
H       0.02305496      1.60635953     -1.11370215
H       2.45466958      1.88034961     -1.38594224
H       4.02238606      0.27594560     -0.32750178
H       3.13877491     -1.61503107      1.01255713
H       0.70963289     -1.90873594      1.29836700
