40
COC(=O)CSc1cc(N=c2sc(=O)n3n2CCCC3)c(F)cc1Cl
C       7.88825113      0.83187570      2.16191665
O       6.65832379      0.13723696      1.94581360
C       6.00497819      0.50493377      0.79957378
O       6.40768426      1.36074913      0.02422187
C       4.72716775     -0.30345492      0.68986160
S       3.85664964      0.00148829     -0.88231905
C       2.39738453     -0.99711773     -0.59769720
C       1.22527631     -0.31995451     -0.22480664
C       0.03439898     -1.01566966      0.00267170
N      -1.11182566     -0.31711711      0.41238835
C      -2.03888794      0.00232917     -0.44318950
S      -1.97260384     -0.32726286     -2.17097169
C      -3.60932465      0.24619089     -2.37151285
O      -4.14904148      0.35027265     -3.46285921
N      -4.16004290      0.55977484     -1.14568843
N      -3.21039200      0.65103938     -0.09920022
C      -3.74791582      0.53485048      1.25412330
C      -4.91756565      1.50226084      1.43549310
C      -5.96821364      1.29190977      0.34719262
C      -5.33726111      1.39992975     -1.03572665
C       0.03536820     -2.40905719     -0.12511424
F      -1.08753528     -3.10484200      0.11137508
C       1.18071493     -3.09980351     -0.50264294
C       2.36082344     -2.39544200     -0.74536368
Cl      3.74480611     -3.31586098     -1.22367790
H       8.58269692      0.65153590      1.33691553
H       8.33732287      0.44895328      3.08292418
H       7.70373011      1.90334945      2.28712648
H       4.07207955     -0.02578695      1.52113732
H       4.98335949     -1.36432795      0.75988752
H       1.22671322      0.76196317     -0.11111738
H      -2.97511116      0.77529039      1.99294900
H      -4.07695534     -0.49561860      1.43680156
H      -4.55208150      2.53584013      1.39267526
H      -5.36954567      1.35618789      2.42239222
H      -6.41505719      0.29723356      0.46830472
H      -6.77460429      2.02509723      0.45114237
H      -5.03216649      2.43149389     -1.24788211
H      -6.05887733      1.10865448     -1.80662690
H       1.13727958     -4.17912502     -0.60490721
