54
C[C@]12C[C@H](O)[C@H]3[C@@H](CCC4=CC(=O)C=C[C@@]43C)[C@@H]1CC[C@]2(O)C(=O)CO
C       2.02165005      0.10150864      1.48894718
C       1.68255838     -0.02992218     -0.01972678
C       1.18778415      1.31868971     -0.58486364
C      -0.19564162      1.74021817     -0.04187170
O      -0.05927050      2.18638098      1.29956042
C      -1.27562874      0.62175062     -0.15988908
C      -0.75622938     -0.76047323      0.37222570
C      -1.77717755     -1.88022419      0.09951943
C      -3.16200583     -1.54729181      0.64147827
C      -3.62200975     -0.21411860      0.11054812
C      -4.74923810     -0.12444134     -0.61761383
C      -5.19863981      1.15382476     -1.20453599
O      -6.22838018      1.22624421     -1.86309028
C      -4.35227529      2.33852528     -0.97202696
C      -3.22999475      2.25168684     -0.24599856
C      -2.70217261      0.98011887      0.41111023
C      -2.73034858      1.23783501      1.93444044
C       0.58399798     -1.07755594     -0.30707524
C       1.27010945     -2.40633202     -0.00296932
C       2.73563813     -2.19570381     -0.44291432
C       2.87840827     -0.69142748     -0.77215596
O       2.69431864     -0.56704361     -2.19613837
C       4.23855063     -0.03515691     -0.48485861
O       4.54149595      1.02722347     -1.04776189
C       5.22156624     -0.70837486      0.46112959
O       6.31405505      0.14698282      0.76954423
H       1.15138306      0.31617940      2.11118774
H       2.74165980      0.91117252      1.65354403
H       2.46131824     -0.81187497      1.90081510
H       1.92744031      2.09877858     -0.36691895
H       1.10222994      1.26074584     -1.67666266
H      -0.51921984      2.60895125     -0.62629037
H       0.56455274      2.93395665      1.30305080
H      -1.41072383      0.48531161     -1.24687821
H      -0.61397281     -0.70674707      1.45630821
H      -1.43742707     -2.81696279      0.55690503
H      -1.84620596     -2.06440841     -0.98095003
H      -3.14563419     -1.52800994      1.73709431
H      -3.85518814     -2.34959362      0.36051499
H      -5.38142445     -0.97872393     -0.83096832
H      -4.69666492      3.26963552     -1.40490024
H      -2.66520713      3.16652687     -0.07928491
H      -3.76048964      1.24060076      2.31484894
H      -2.30691469      2.21223237      2.20084792
H      -2.18290882      0.47862152      2.50076696
H       0.38048911     -1.08520886     -1.39056095
H       1.22295827     -2.64606221      1.06530602
H       0.81173779     -3.23797563     -0.54805180
H       2.95385875     -2.81687615     -1.31954958
H       3.39071986     -2.53305611      0.36474118
H       3.01739738      0.32364760     -2.44364717
H       5.61521279     -1.60929233     -0.01653453
H       4.73189046     -0.96491218      1.40146300
H       6.41801276      0.75042027      0.00615789
