21
Cc1ccc(C)c(C)c1
C       3.05762954      0.84137141      0.18468634
C       1.66926103      0.27442824      0.19494743
C       1.44356584     -1.04066222      0.60606288
C       0.15443090     -1.57532233      0.58499623
C      -0.93494930     -0.81025875      0.14314001
C      -2.30893910     -1.42165206      0.13365750
C      -0.71518569      0.51206282     -0.28966490
C      -1.84563686      1.37372647     -0.78199403
C       0.58788304      1.03752780     -0.26242772
H       3.53089288      0.65464341     -0.78417126
H       3.03979256      1.92076329      0.36859084
H       3.67100376      0.38886026      0.97098549
H       2.26977972     -1.65985306      0.94728520
H       0.00698879     -2.60100044      0.91605172
H      -2.70074558     -1.45979393     -0.88765276
H      -2.98876354     -0.84091033      0.76504327
H      -2.29613349     -2.44603567      0.52102168
H      -2.58728148      1.51684102      0.01016964
H      -1.49336949      2.36505576     -1.08643783
H      -2.32382784      0.91339131     -1.65234162
H       0.76360430      2.05681701     -0.60194811
