29
NC(=O)c1ncn([C@@H]2O[C@H](CO)[C@@H](O)[C@H]2O)n1
N       4.52674673      2.10976151      0.53023591
C       3.16852392      2.20586384      0.36535615
O       2.60793301      3.29828458      0.37853969
C       2.49306612      0.90666891      0.18092260
N       3.18739806     -0.29723204      0.17538262
C       2.24792811     -1.19368796     -0.01473970
N       1.04229200     -0.57596988     -0.12963366
C      -0.24912350     -1.21348085     -0.34514102
O      -0.99411985     -0.45247865     -1.32384804
C      -2.25467862     -0.06411009     -0.73843018
C      -2.21404412      1.42190497     -0.36223978
O      -1.38005829      1.66735000      0.76114451
C      -2.47785107     -1.00257014      0.44513449
O      -3.04421091     -2.25353229     -0.00232098
C      -1.07159521     -1.30249458      0.93919280
O      -0.99650318     -2.60366557      1.53596210
N       1.16428741      0.76448805      0.01182058
H       4.96840785      1.19819027      0.53563161
H       5.06314132      2.94968780      0.68210899
H       2.38026310     -2.26546462     -0.07472723
H      -0.05237693     -2.20227121     -0.77580315
H      -3.01568088     -0.20912862     -1.51301545
H      -1.85137862      2.02950199     -1.19790318
H      -3.22022821      1.76209685     -0.09835002
H      -0.44856759      1.66667236      0.43519887
H      -3.13606603     -0.60559209      1.22317867
H      -3.94274038     -2.06221999     -0.32997421
H      -0.74727759     -0.57508119      1.68964662
H      -1.75348664     -3.10149136      1.15672592
