15
Cc1ccccc1Br
C       2.17181447     -0.23623218     -0.32741723
C       0.69345283     -0.08348914     -0.10492225
C      -0.11159396     -1.23270767     -0.04169848
C      -1.48916274     -1.13242172      0.16365104
C      -2.08344015      0.11785471      0.30898205
C      -1.29995219      1.26935823      0.24900450
C       0.08025964      1.17092220      0.04335660
Br      1.07319260      2.78931987     -0.02517669
H       2.73134384      0.17984162      0.51643054
H       2.47354014      0.26305322     -1.25367073
H       2.45667605     -1.29008934     -0.41844686
H       0.33120920     -2.22063863     -0.15263390
H      -2.09755953     -2.03231678      0.20995472
H      -3.15558257      0.19673537      0.46884168
H      -1.77419763      2.24081022      0.36374502
