57
CCCCCCCCCCCCCCCCCCO
C       9.32168350     -0.68020469     -0.75362221
C       8.64939790     -0.83951590      0.60128756
C       7.13490956     -0.61928239      0.56057127
C       6.74410471      0.81437530      0.19195044
C       5.24770639      1.09662415      0.36092469
C       4.36594616      0.29165355     -0.59643064
C       2.89410054      0.69307903     -0.46400335
C       2.01147954     -0.11748033     -1.41579468
C       0.54449898      0.32182637     -1.40877342
C      -0.16272151      0.06028851     -0.07707631
C      -1.65119018      0.41022772     -0.16215343
C      -2.35841641      0.14873613      1.16954817
C      -3.82527552      0.58847805      1.17679585
C      -4.70833418     -0.22188853      0.22523654
C      -6.18002050      0.18037348      0.35738297
C      -7.06324239     -0.62993209     -0.59391483
C      -8.53063958     -0.18671892     -0.58537248
C      -9.24478786     -0.38482779      0.74666651
O      -9.19885827     -1.75252722      1.12505043
H       8.86343063     -1.33719526     -1.49955245
H       9.25838711      0.35069536     -1.11399733
H      10.38249633     -0.94032719     -0.67920817
H       8.84286821     -1.85420331      0.96933951
H       9.10795682     -0.14978624      1.31938031
H       6.68985079     -1.32644093     -0.14855422
H       6.72695050     -0.86048530      1.54980319
H       7.29756201      1.51295947      0.83149214
H       7.03520371      1.03125304     -0.84216718
H       5.08061515      2.16704408      0.18766448
H       4.95011032      0.89499882      1.39716402
H       4.46446212     -0.77943575     -0.38736674
H       4.69976429      0.45476660     -1.62821345
H       2.57322028      0.53648050      0.57184660
H       2.78403724      1.76222985     -0.68171501
H       2.07733866     -1.18327425     -1.16530835
H       2.39478575     -0.00954368     -2.43813476
H       0.47837830      1.38729765     -1.66053823
H       0.02175067     -0.22327511     -2.20460354
H      -0.04954742     -0.99502121      0.19888802
H       0.30007858      0.65648774      0.71713641
H      -2.11398335     -0.18599482     -0.95635195
H      -1.76435117      1.46553044     -0.43814549
H      -1.83544406      0.69359020      1.96540386
H      -2.29258652     -0.91678571      1.42118090
H      -4.20822517      0.48074287      2.19928945
H      -3.89101547      1.65425240      0.92621272
H      -4.38642179     -0.06562881     -0.81031141
H      -4.59971923     -1.29120134      0.44299292
H      -6.50234046      0.02365624      1.39281792
H      -6.28876460      1.24969641      0.13975624
H      -6.68184949     -0.52120549     -1.61700347
H      -6.99274168     -1.69598306     -0.34689349
H      -9.05514869     -0.77120738     -1.35163733
H      -8.59971632      0.86678770     -0.88021708
H      -8.79157015      0.21810115      1.53884246
H     -10.29482193     -0.08982591      0.65115284
H      -9.67134085     -1.83075926      1.97128257
