20
COc1ccc(OC)cc1
C      -3.68978643      0.05733352      0.17126072
O      -2.59618137      0.49767750      0.96644853
C      -1.34209991      0.21901378      0.49858371
C      -0.30041329      0.67037407      1.31222759
C       1.03598181      0.45463441      0.95665154
C       1.34209974     -0.21901630     -0.22389520
O       2.59618101     -0.49768193     -0.69175966
C       3.68978679     -0.05733102      0.10342328
C       0.30041302     -0.67037616     -1.03753921
C      -1.03598204     -0.45463679     -0.68196320
H      -4.61276250      0.35482497      0.67827776
H      -3.69726770     -1.03383513      0.07959385
H      -3.68104948      0.53749191     -0.81285252
H      -0.53149237      1.19697637      2.23522728
H       1.80622525      0.82555935      1.62373973
H       3.68105344     -0.53748446      1.08753894
H       3.69726322      1.03383778      0.19508750
H       4.61276343     -0.35482085     -0.40359438
H       0.53149260     -1.19697828     -1.96053870
H      -1.80622525     -0.82556274     -1.34905113
