16
C1CNCCN1
C      -1.37959266     -0.18524158      0.32401645
C      -0.54158362     -1.26043341     -0.40071607
N       0.89421584     -1.18417878     -0.07832840
C       1.37959168      0.18524261     -0.32401926
C       0.54158468      1.26043256      0.40071742
N      -0.89421522      1.18418041      0.07833050
H      -2.42148257     -0.25356614     -0.00779883
H      -1.37936462     -0.37844542      1.40394618
H      -0.67197944     -1.16518109     -1.48584349
H      -0.91125355     -2.25430033     -0.12525397
H       0.99864588     -1.37586614      0.91899433
H       1.37935659      0.37844403     -1.40394988
H       2.42148415      0.25356795      0.00779048
H       0.67198088      1.16517481      1.48584412
H       0.91125684      2.25429930      0.12526138
H      -0.99864487      1.37587121     -0.91899098
