24
OCC(O)COc1ccc(Cl)cc1
O      -3.95541117     -0.40618446      0.20945410
C      -3.51984950      0.27523047     -0.96600823
C      -2.19566332      0.98884864     -0.69885100
O      -2.39763651      1.90303278      0.39391552
C      -1.07885642      0.00451813     -0.33107384
O       0.13204477      0.76484994     -0.20829399
C       1.27064690      0.07241812      0.09802071
C       1.35475059     -1.29721821      0.35576256
C       2.59051628     -1.87966194      0.66009589
C       3.73951908     -1.09297043      0.70713566
Cl      5.25576020     -1.81356060      1.08115885
C       3.66500777      0.27335586      0.45324799
C       2.43040287      0.85219230      0.15003487
H      -3.93722034      0.27320454      0.91368210
H      -4.29922983      0.99694887     -1.23132259
H      -3.42579592     -0.45340143     -1.77650933
H      -1.90550508      1.58505034     -1.57104114
H      -1.51074963      2.24693338      0.61749150
H      -0.97063865     -0.74672033     -1.12193687
H      -1.30166679     -0.47076897      0.63158252
H       0.48173961     -1.94156974      0.33253766
H       2.64730462     -2.94656163      0.86031436
H       4.55725259      0.89217484      0.48908494
H       2.37327787      1.91985955     -0.04848226
