53
C#C[C@]1(O)CC[C@H]2[C@@H]3CCC4=CCCC[C@@H]4[C@H]3C(=C)C[C@@]21CC
C      -2.98874308      2.90845885     -2.20385871
C      -3.14751075      2.00831411     -1.42387991
C      -3.36476004      0.90152271     -0.46361827
O      -4.53751237      0.21694753     -0.86821956
C      -3.56901596      1.47301783      0.96761049
C      -2.22245775      1.33100355      1.70357293
C      -1.25177029      0.85912142      0.62653340
C       0.08281907      0.21494048      1.04840472
C       0.86644402      1.13642381      1.99174483
C       2.19072456      0.50175400      2.38874398
C       3.02721304      0.20670671      1.17427385
C       4.30149649      0.63405422      1.09772210
C       5.22648076      0.31469806     -0.03593905
C       4.69986553     -0.81382429     -0.91445855
C       3.21860998     -0.61547670     -1.21630769
C       2.35547346     -0.61382482      0.07404876
C       0.90612801     -0.11001274     -0.24327240
C       0.03519784     -0.98666028     -1.16532853
C       0.32701384     -2.23155938     -1.57833817
C      -1.29321842     -0.34150180     -1.56190945
C      -2.12971474     -0.04490130     -0.29563751
C      -2.54793698     -1.39171649      0.41976035
C      -3.23147589     -2.45475311     -0.44004796
H      -2.84468944      3.70264846     -2.89986626
H      -5.23730185      0.88432786     -0.96998271
H      -4.34727492      0.92386161      1.51159449
H      -3.88665904      2.52271440      0.95137270
H      -2.30558741      0.60290557      2.51797123
H      -1.91200374      2.28463046      2.14294709
H      -0.97202899      1.76428969      0.06277690
H      -0.10617092     -0.71590228      1.59625477
H       1.04372282      2.10866261      1.51400897
H       0.28465533      1.32801134      2.90080967
H       2.00920136     -0.43390878      2.93215323
H       2.71329529      1.17151451      3.08215704
H       4.72660866      1.22927517      1.90310399
H       5.37157333      1.22166840     -0.63456173
H       6.20727731      0.03042290      0.36171207
H       4.84534942     -1.77870184     -0.41223515
H       5.27289643     -0.85092485     -1.84789814
H       2.89962893     -1.40577491     -1.90129893
H       3.09114069      0.33251652     -1.75602248
H       2.29672521     -1.64222160      0.45656252
H       1.03835720      0.84292703     -0.78094486
H       1.22773738     -2.75670778     -1.28370833
H      -0.35138749     -2.78466077     -2.22198989
H      -1.85814402     -0.96074330     -2.26729681
H      -1.05098612      0.57788303     -2.10863196
H      -3.21323847     -1.18128779      1.26488183
H      -1.67159422     -1.87610742      0.86127606
H      -4.14840973     -2.09853464     -0.91088389
H      -2.57177343     -2.83647375     -1.22198170
H      -3.50426992     -3.30904224      0.18968024
