28
C1CCC2CCCCC2C1
C       2.49330694      0.87134233     -0.03478491
C       2.54125008     -0.61544082     -0.37458051
C       1.35927326     -1.37350178      0.22625108
C       0.02245615     -0.74667728     -0.19057997
C      -1.15968957     -1.50153697      0.43107666
C      -2.49330820     -0.87134184      0.03479176
C      -2.54124920      0.61544413      0.37458245
C      -1.35927312      1.37350102     -0.22625808
C      -0.02245662      0.74667777      0.19057826
C       1.15969011      1.50153690     -0.43107555
H       3.31223534      1.39206816     -0.54376636
H       2.65209765      1.00349839      1.04260351
H       3.47972607     -1.04684043     -0.00849499
H       2.53685235     -0.73974744     -1.46452256
H       1.39925070     -2.42034786     -0.09731939
H       1.44775225     -1.37462838      1.32009842
H      -0.06217267     -0.83059277     -1.28382507
H      -1.07017801     -1.50260736      1.52483993
H      -1.14563073     -2.54970225      0.10961860
H      -2.65210356     -1.00350355     -1.04259606
H      -3.31223458     -1.39206625      0.54377881
H      -2.53684546      0.73975652      1.46452438
H      -3.47972730      1.04684304      0.00850005
H      -1.39925118      2.42035099      0.09729974
H      -1.44775227      1.37461559     -1.32010534
H       0.06217191      0.83059236      1.28382357
H       1.14562756      2.54970250     -0.10961901
H       1.07018211      1.50260525     -1.52483942
