29
Cc1ccc2nc(-c3ccc(N)cc3)sc2c1
C       5.75750656     -0.36316630     -0.08659240
C       4.28225966     -0.23214363     -0.33656002
C       3.79556596     -0.16436597     -1.64426483
C       2.42138272     -0.07276349     -1.89496694
C       1.51172834     -0.05922483     -0.81990210
N       0.13456447      0.02691515     -0.92205083
C      -0.42633163      0.00857038      0.27263391
C      -1.88751202      0.08710602      0.49037125
C      -2.73419350      0.18058748     -0.62648005
C      -4.12507807      0.25936282     -0.48319291
C      -4.70910114      0.29097844      0.78150952
N      -6.09984182      0.25030103      0.92021343
C      -3.88433941      0.13730083      1.89539128
C      -2.49110891      0.05702229      1.75648407
S       0.69050316     -0.11182090      1.57987178
C       2.00846975     -0.14208232      0.47839574
C       3.38591519     -0.23491189      0.74414006
H       6.03300284      0.08969130      0.87167249
H       6.33254610      0.14967820     -0.86477415
H       6.04184744     -1.41981833     -0.07381730
H       4.48290351     -0.18096049     -2.48794649
H       2.04719709     -0.01496072     -2.91216812
H      -2.31200737      0.17965047     -1.63067545
H      -4.74387562      0.29729231     -1.37571306
H      -6.60224789      0.66491232      0.14145961
H      -6.43471238      0.58675814      1.81737025
H      -4.31741011      0.07814002      2.89071927
H      -1.90124815     -0.04252432      2.66362529
H       3.74361524     -0.30552402      1.76752094
