49
Cc1ccc(C(=O)COc2c(C(=O)c3ccc(Cl)c(C)c3Cl)c(C)nn2C)cc1
C       4.47482590      2.90171043      2.29288601
C       3.54578063      2.33731179      1.25716939
C       2.74448238      3.18407912      0.48485040
C       1.90665429      2.65761778     -0.50053891
C       1.85473086      1.27662693     -0.72742745
C       0.93076462      0.76892037     -1.78580610
O       0.47871935      1.55695151     -2.61755257
C       0.58885312     -0.71312225     -1.84647570
O       0.23197902     -1.21100467     -0.55902542
C      -0.53176339     -2.30691931     -0.57231538
C      -1.85327078     -2.49587589     -0.19816613
C      -2.80390134     -1.52120385      0.31245228
O      -3.95323065     -1.80904459      0.63527855
C      -2.37581227     -0.12446443      0.50386383
C      -1.79092387      0.21154305      1.72845420
C      -1.39218611      1.52435448      1.95578986
C      -1.60012494      2.50207472      0.97666108
Cl     -1.05350192      4.10264033      1.34755942
C      -2.21902733      2.19072924     -0.25254233
C      -2.41554879      3.26203440     -1.29656022
C      -2.58794410      0.84692655     -0.48750894
Cl     -3.27643696      0.36863645     -2.00844854
C      -2.08865156     -3.88238101     -0.42908134
C      -3.34979630     -4.64270216     -0.22908569
N      -0.99419614     -4.51132122     -0.87255879
N      -0.05522165     -3.55208837     -0.90309643
C       1.29729196     -3.92331368     -1.24141430
C       2.67548377      0.43075770      0.02638389
C       3.51601023      0.95977031      1.01036630
H       4.08740442      3.84163109      2.70132829
H       5.45963040      3.08700359      1.85291657
H       4.58800604      2.20706588      3.13118026
H       2.76454158      4.26103485      0.64341440
H       1.28946287      3.33577804     -1.08733272
H       1.45622025     -1.25039834     -2.24309574
H      -0.24779078     -0.83003744     -2.54679207
H      -1.64281432     -0.54284713      2.49755471
H      -0.92060650      1.78538337      2.90137739
H      -1.48826107      3.41382827     -1.85802099
H      -3.21551781      3.02228918     -2.00263473
H      -2.71683187      4.21057068     -0.84018125
H      -3.21844436     -5.70529413     -0.46214053
H      -4.13952967     -4.25026485     -0.87815742
H      -3.68217776     -4.56842890      0.81137951
H       1.99315499     -3.20330410     -0.80578423
H       1.38384331     -3.93297975     -2.33016305
H       1.50674376     -4.91576858     -0.83347724
H       2.68806211     -0.64252724     -0.13199366
H       4.15086639      0.28802176      1.58554466
