32
Clc1ccc(C2(Cn3cncn3)CC(Br)CO2)c(Cl)c1
Cl     -5.58310628     -2.22537447      0.80608121
C      -4.00867814     -1.57574323      0.57118993
C      -3.05868797     -1.68367315      1.57703132
C      -1.77893868     -1.15552692      1.38318002
C      -1.41767212     -0.50147521      0.18337532
C       0.01331636      0.05685598      0.02485900
C       0.80162967     -0.85367364     -0.94656814
N       2.19120346     -0.48562512     -1.10844205
C       3.25716800     -0.90448428     -0.37543087
N       4.35338753     -0.35655617     -0.84668879
C       3.89826376      0.38889860     -1.89660694
N       2.57697683      0.34888707     -2.09102494
C       0.01681948      1.55965961     -0.32565033
C       1.07054670      2.15487798      0.57432518
Br      0.72114838      4.01073170      0.98107925
C       0.97938978      1.28394983      1.79750693
O       0.69057896     -0.03773617      1.31623591
C      -2.40587662     -0.41957390     -0.82304038
Cl     -2.12449207      0.31447475     -2.36322954
C      -3.68850296     -0.94925840     -0.62671202
H      -3.30147430     -2.17636390      2.51566058
H      -1.06239106     -1.26595088      2.19677142
H       0.36360321     -0.87998711     -1.94900311
H       0.80567612     -1.88703815     -0.57429466
H       3.17992966     -1.57904722      0.46617441
H       4.54622181      0.97894150     -2.53238497
H       0.22079228      1.76020767     -1.38242936
H      -0.96117247      2.00897412     -0.10673433
H       2.06389030      2.10510188      0.12153969
H       0.16741929      1.57589153      2.47342997
H       1.91053888      1.26369713      2.37157566
H      -4.43750777     -0.87406141     -1.41177536
