8
FC(F)(F)CCl
F       1.50579778     -0.67176315     -0.75470533
C       0.74282244      0.14346337      0.01356615
F       1.19651670      0.03592843      1.28107444
F       0.96238454      1.40786240     -0.40722716
C      -0.71477175     -0.24871611     -0.10298573
Cl     -1.78429279      0.78332487      0.88398247
H      -1.04913017     -0.16895811     -1.14117930
H      -0.85932676     -1.28114170      0.22747445
