31
COC(=O)c1cc(Oc2ccc(Cl)cc2Cl)ccc1[N+](=O)[O-]
C      -3.61266655      2.27894973     -0.23186820
O      -2.65578879      1.32427738      0.23120380
C      -2.61789310      0.19114638     -0.50694088
O      -3.26797343     -0.06574366     -1.50404301
C      -1.63732652     -0.74103145      0.07645209
C      -0.36843241     -0.26988438      0.44527983
C       0.59991537     -1.16876811      0.90758886
O       1.85564764     -0.77605444      1.31537805
C       2.50628899      0.15076116      0.53169599
C       2.80399688     -0.13709072     -0.80526050
C       3.49945004      0.79582354     -1.57638099
C       3.90726591      2.00205736     -1.00575617
Cl      4.76390857      3.14771702     -1.96139691
C       3.63278172      2.28602706      0.33105474
C       2.93753242      1.35417178      1.10258556
Cl      2.60792961      1.72966351      2.75406116
C       0.30236089     -2.52892189      1.03541090
C      -0.95762146     -3.00674562      0.67336355
C      -1.91739319     -2.10449828      0.19445053
N      -3.24118182     -2.61708178     -0.10179313
O      -3.31120997     -3.55939576     -0.90150224
O      -4.18731720     -2.12210519      0.52448222
H      -4.62158628      1.85525377     -0.20521564
H      -3.58147467      3.14226066      0.43849089
H      -3.35911214      2.61456778     -1.24230956
H      -0.14180035      0.79096161      0.36798960
H       2.50618307     -1.08462027     -1.24707502
H       3.72653402      0.57448714     -2.61673045
H       3.96077905      3.22499290      0.76887969
H       1.05454930     -3.21539224      1.41935022
H      -1.18634559     -4.06578498      0.77775737
