84
COC(=O)[C@H]1[C@H]2C[C@@H]3c4[nH]c5cc(OC)ccc5c4CCN3C[C@H]2C[C@@H](OC(=O)c2cc(OC)c(OC)c(OC)c2)[C@@H]1OC
C       1.93223860     -4.85753627     -2.46558322
O       1.30637232     -4.24913970     -1.33505351
C       1.25401254     -2.88668069     -1.37137864
O       1.72652609     -2.19744900     -2.26639970
C       0.51265829     -2.35228736     -0.15698177
C       1.27915740     -1.21299108      0.54206770
C       1.46367578      0.07110843     -0.29330610
C       2.17339265      1.19014409      0.48624197
C       3.65027748      0.98228307      0.65300930
N       4.49027900      0.37300680     -0.23925462
C       5.78554220      0.43019618      0.22456847
C       6.96715451     -0.06286374     -0.34249302
C       8.17072697      0.15607051      0.33674990
O       9.26887408     -0.37677020     -0.28558329
C      10.53989748      0.07396284      0.18394667
C       8.17793968      0.84407128      1.55287337
C       6.98498010      1.32499979      2.11471454
C       5.76536684      1.11008690      1.44396817
C       4.40873871      1.43429821      1.71335495
C       3.77241479      2.11206728      2.87915239
C       2.29442730      2.46949595      2.56446434
N       1.52437299      1.45459153      1.79704228
C       1.30742604      0.23979822      2.59849813
C       0.53014826     -0.84749185      1.83721627
C      -0.91812173     -0.41922175      1.54440288
C      -1.70259999     -1.40670025      0.66858422
O      -2.84128983     -0.67944514      0.13927280
C      -3.95062425     -0.60136600      0.90780230
O      -4.13038342     -1.14174805      1.98478122
C      -4.95635895      0.25198232      0.22226722
C      -4.57529784      1.21487354     -0.72812184
C      -5.54037332      2.01590179     -1.33801025
O      -5.27767106      2.98030859     -2.27844335
C      -3.91763835      3.33118268     -2.50286639
C      -6.89291639      1.82631442     -0.99827228
O      -7.85336130      2.64406779     -1.55500517
C      -8.28780937      2.11245565     -2.80432326
C      -7.28269520      0.88227187     -0.02960388
O      -8.62577485      0.80322949      0.23160783
C      -9.03383064      0.00421716      1.33337218
C      -6.30430040      0.09337602      0.57272422
C      -0.91647944     -1.96118093     -0.54700370
O      -1.55936529     -3.16162670     -1.01754375
C      -2.55143288     -2.94195440     -2.00748360
H       1.52855404     -4.45128092     -3.39892645
H       1.71750567     -5.93199366     -2.43559583
H       3.01668548     -4.71623868     -2.41031090
H       0.45068343     -3.18993502      0.55704661
H       2.27861435     -1.59324487      0.80723555
H       0.49048772      0.45835057     -0.60558971
H       1.99506698     -0.12086924     -1.22613190
H       2.06051914      2.10335653     -0.11917312
H       4.21871683     -0.05013254     -1.11680693
H       6.95109735     -0.60125533     -1.28598454
H      10.74384423     -0.29819341      1.19468749
H      11.30525674     -0.34308606     -0.47691749
H      10.61527584      1.16629303      0.14096249
H       9.10029627      1.02658237      2.10016607
H       7.00629285      1.85859954      3.06081513
H       4.31693164      3.02361866      3.14850462
H       3.81265571      1.43719624      3.74278595
H       1.77402044      2.70440669      3.50291991
H       2.27761006      3.40602824      1.98984650
H       0.74511468      0.50240528      3.50242223
H       2.25731708     -0.19008109      2.93823037
H       0.49196527     -1.73722549      2.48025703
H      -0.95089163      0.57371580      1.08005552
H      -1.45350353     -0.28745705      2.49278386
H      -2.05010606     -2.25270580      1.27428514
H      -3.52290141      1.32926483     -0.97259145
H      -3.35854219      2.49308362     -2.92770912
H      -3.44574521      3.69027198     -1.58268000
H      -3.89902644      4.14931215     -3.22773133
H      -8.72869605      1.11678018     -2.67992318
H      -9.05473914      2.78229386     -3.20605440
H      -7.46745678      2.06989796     -3.53021974
H      -8.55188695      0.33277438      2.25953875
H     -10.11613544      0.12388143      1.45410332
H      -8.83235231     -1.05760825      1.14396500
H      -6.55857251     -0.65321684      1.32042487
H      -0.89484054     -1.22488588     -1.36373999
H      -3.38671630     -2.35248287     -1.61821911
H      -2.93740602     -3.91803661     -2.31944229
H      -2.11326884     -2.44809301     -2.88134652
