17
CCOc1nc(C(Cl)(Cl)Cl)ns1
C      -3.36882355     -0.23367233      0.11324519
C      -1.85535888     -0.34327891      0.10676264
O      -1.31946873      0.92255768     -0.27493022
C       0.00983710      0.97230870     -0.32302760
N       0.80904575     -0.03332782     -0.05081459
C       2.14433003      0.38752702     -0.20696675
C       3.30985863     -0.55865562      0.03871516
Cl      4.27705309     -0.73453816     -1.45984164
Cl      4.34793433      0.08274762      1.35137217
Cl      2.74226245     -2.19055262      0.52744898
N       2.35757484      1.66233761     -0.58306158
S       0.86464581      2.38639837     -0.75584895
H      -3.73887962      0.05194781     -0.87701310
H      -3.82740524     -1.18379628      0.40117333
H      -3.69606248      0.54319090      0.81219741
H      -1.50648077     -0.61552632      1.11028815
H      -1.55006274     -1.11566766     -0.60955132
