36
CC(C)(C)C(=O)C(Oc1ccc(Cl)cc1)n1cncn1
C      -3.49457859     -1.41041547     -1.02566716
C      -2.62399792     -0.40086177     -0.24963848
C      -3.34039364      0.95545566     -0.23308002
C      -2.46620571     -0.92727439      1.18198869
C      -1.27806443     -0.24926161     -1.00183118
O      -1.25340490     -0.33761710     -2.23705609
C      -0.00069878      0.07895389     -0.21655265
O       1.13633552     -0.24698429     -1.02815216
C       2.30373260     -0.60277244     -0.41496194
C       3.22654258     -1.23421588     -1.25539608
C       4.46867575     -1.64753738     -0.76856014
C       4.79383725     -1.41991150      0.56484841
Cl      6.32076634     -1.92481434      1.17354803
C       3.88811174     -0.77947532      1.40781779
C       2.64309032     -0.36692779      0.91817652
N       0.02684934      1.49877872      0.08527497
C       0.18800551      2.53546189     -0.78227650
N       0.14058755      3.66907864     -0.12152035
C      -0.03818240      3.26979894      1.17106100
N      -0.12056947      1.94808320      1.35251629
H      -4.45533586     -1.57717554     -0.52540013
H      -3.71149602     -1.05961615     -2.04132993
H      -2.98807271     -2.37856323     -1.11467383
H      -2.80951093      1.68649733      0.38344005
H      -3.41778316      1.37634212     -1.24212397
H      -4.35490464      0.86281928      0.17083178
H      -3.44167624     -1.12913749      1.63958877
H      -1.95597409     -0.20661761      1.82874256
H      -1.89073684     -1.85969708      1.20005277
H       0.01097188     -0.50507637      0.70716003
H       2.97587434     -1.40933429     -2.29990283
H       5.17259409     -2.14025150     -1.43371858
H       4.14656015     -0.58916804      2.44672427
H       1.98274045      0.15063292      1.60729629
H       0.32996521      2.40919965     -1.84798685
H      -0.11365431      3.96160432      2.00076067
