28
Cc1ccc(O)c(C(C)(C)C)c1
C       3.21342436     -1.67432063     -0.71473509
C       2.26747273     -0.65513685     -0.15001098
C       2.73483991      0.35386003      0.69016794
C       1.84344569      1.27447663      1.23206300
C       0.47740918      1.18346108      0.94414911
O      -0.36095979      2.11119087      1.49914461
C      -0.04338655      0.17291178      0.11336897
C      -1.55078483      0.05857710     -0.20546465
C      -2.36084872     -0.16098163      1.09160565
C      -1.90093028     -1.12833284     -1.13989808
C      -2.04770224      1.33292241     -0.92383215
C       0.89011417     -0.74284835     -0.41823121
H       2.89287391     -1.99196682     -1.71250176
H       3.25508913     -2.54943035     -0.05901502
H       4.22236270     -1.26052820     -0.81516218
H       3.79325366      0.42980807      0.92659352
H       2.22932088      2.05577639      1.87970752
H       0.16008292      2.72972499      2.03514768
H      -1.99835752     -1.04022558      1.63731727
H      -3.42290152     -0.32137279      0.87077976
H      -2.31052067      0.69217983      1.77398427
H      -1.62240205     -2.09030205     -0.69380094
H      -1.39988967     -1.04011062     -2.11105678
H      -2.97866399     -1.17019715     -1.33994886
H      -1.98937486      2.22580280     -0.29502769
H      -1.45969531      1.52883975     -1.82834121
H      -3.09722746      1.23188190     -1.22506157
H       0.56395622     -1.55565976     -1.06194112
