19
CC(C)(CO)CO
C      -0.32186026      1.03135386     -1.27810904
C      -0.04578716     -0.06062008     -0.23071799
C      -1.00046578     -1.24312505     -0.47880663
C      -0.28833724      0.53080617      1.17435856
O      -0.00126418     -0.41417961      2.20203094
C       1.41892275     -0.53141312     -0.37308065
O       1.73333169     -1.59347824      0.51941829
H      -0.16843254      0.65308272     -2.29507476
H      -1.35378755      1.39374039     -1.20979478
H       0.34357134      1.89077510     -1.13870764
H      -0.83953386     -2.05990126      0.23239561
H      -2.04630867     -0.92814799     -0.38940757
H      -0.86270344     -1.65291938     -1.48592119
H       0.36226032      1.39642764      1.34149441
H      -1.32323800      0.87080084      1.29601530
H      -0.77257804     -1.00635116      2.27218156
H       1.61367139     -0.89086158     -1.38949437
H       2.11580825      0.29124093     -0.17687526
H       1.43673099     -1.30305181      1.40809522
