42
CN(C)CCc1c[nH]c2ccc(C[C@H]3COC(=O)N3)cc12
C      -4.93857960     -0.00697299     -1.90065673
N      -3.80707281     -0.87021150     -1.55523746
C      -4.28021719     -2.24272279     -1.35149968
C      -3.10326103     -0.39881112     -0.34429185
C      -2.36361026      0.93683402     -0.53973244
C      -1.53390825      1.30176640      0.65493616
C      -1.90118907      2.14993965      1.68160101
N      -0.86652599      2.21724308      2.57520789
C       0.17735498      1.42670101      2.15524868
C       1.42272441      1.18894461      2.74581863
C       2.30171016      0.32529400      2.08359683
C       1.95365193     -0.28283709      0.87220237
C       2.93017218     -1.18977314      0.16359647
C       3.57110845     -0.52639541     -1.05426282
C       4.46813033      0.65332566     -0.73028494
O       5.45551561      0.63780591     -1.77198182
C       5.46636734     -0.61410657     -2.31675337
O       6.21867140     -0.98622947     -3.19945193
N       4.47999976     -1.38141117     -1.75396767
C       0.69242281     -0.02804408      0.30445332
C      -0.21107649      0.84035717      0.95216246
H      -4.60171629      0.99720247     -2.17564476
H      -5.46569875     -0.39772616     -2.77880058
H      -5.65937047      0.07880145     -1.07953028
H      -4.76763146     -2.62092431     -2.25718360
H      -3.43892233     -2.91482512     -1.14844207
H      -4.99060250     -2.31620280     -0.51997382
H      -3.79875904     -0.32011731      0.50260954
H      -2.35727584     -1.15386858     -0.06126555
H      -3.07876032      1.74615701     -0.72863173
H      -1.71561035      0.87799363     -1.42335807
H      -2.81058952      2.71153277      1.85006031
H      -0.86369132      2.76692258      3.42309670
H       1.70358611      1.65426167      3.68519098
H       3.27376571      0.13157184      2.53441147
H       2.40248144     -2.10224360     -0.14471121
H       3.70531846     -1.52989412      0.86314526
H       2.80889361     -0.22138038     -1.78308201
H       3.92674478      1.60387109     -0.74821399
H       4.98904623      0.55384104      0.22837291
H       4.20403620     -2.19924137     -2.28219345
H       0.40236697     -0.49642797     -0.63261191
