24
CC(C)c1ccc(C(=O)O)cc1
C      -2.40628793     -0.59985005      1.75003470
C      -1.99592216      0.36023408      0.63072513
C      -2.84109275      0.12837179     -0.62424187
C      -0.51019194      0.26339238      0.32893858
C       0.31338857      1.38285870      0.52146644
C       1.68298234      1.31671264      0.25036326
C       2.25143001      0.12792612     -0.21834939
C       3.70831910      0.10463372     -0.49229635
O       4.47717692      1.03710610     -0.34710228
O       4.13861059     -1.08954128     -0.93735895
C       1.43982320     -0.99394649     -0.41380755
C       0.06995093     -0.92487860     -0.14175794
H      -1.80991233     -0.42642593      2.65274077
H      -3.46024915     -0.45708783      2.01215719
H      -2.27530740     -1.64799032      1.45980928
H      -2.21484741      1.37717015      0.98272494
H      -3.90327935      0.28490745     -0.40703183
H      -2.55612696      0.82335223     -1.42199822
H      -2.72805313     -0.88971704     -1.01244534
H      -0.10471424      2.31940991      0.88528333
H       2.30335883      2.19708896      0.40677253
H       5.09992711     -0.95466501     -1.07204125
H       1.86133323     -1.92781147     -0.77742453
H      -0.54031610     -1.81125019     -0.30185797
