20
CC1CCCC(=O)C1
C       2.35290412      0.19793495     -0.23381622
C       0.84836694      0.08134415     -0.46845711
C       0.28364371     -1.15950734      0.23840767
C      -1.22072193     -1.28672839      0.00355728
C      -1.97240615     -0.04865227      0.47021192
C      -1.36711412      1.19787738     -0.13326038
O      -2.06759869      2.08844072     -0.61212315
C       0.13206374      1.35119790     -0.00270982
H       2.87315022     -0.69366360     -0.59931861
H       2.76220305      1.06500440     -0.76286924
H       2.58257750      0.31121610      0.83113647
H       0.68042501     -0.03571524     -1.54772485
H       0.78332089     -2.06146555     -0.13463478
H       0.48344002     -1.10488324      1.31606714
H      -1.40481360     -1.44491909     -1.06653911
H      -1.60322688     -2.16912643      0.52863786
H      -1.93094112      0.04681501      1.56059416
H      -3.02413474     -0.11736031      0.17338421
H       0.35643189      1.57491231      1.04653605
H       0.45243016      2.20727853     -0.60707949
