40
CN1CCC23c4c5ccc(O)c4OC2C(O)C=CC3C1C5
C       3.99867399      0.04758368      0.17477934
N       2.58154477      0.16109573     -0.15861942
C       2.28592185     -0.44524241     -1.45717301
C       0.79894125     -0.33805913     -1.84681005
C      -0.15478482     -0.55866497     -0.64420173
C      -0.63158438      0.77175883     -0.15452582
C      -0.05889261      1.55040989      0.83419016
C      -0.67170650      2.77567105      1.11216290
C      -1.83557588      3.16783906      0.41434030
C      -2.41533419      2.31948578     -0.52917697
O      -3.57136823      2.68075618     -1.14657170
C      -1.81233906      1.11024449     -0.78153052
O      -2.29956692      0.08720165     -1.56424316
C      -1.54264200     -1.08346212     -1.05632369
C      -2.36731645     -1.71722204      0.10671373
O      -2.99188604     -2.91993855     -0.35084667
C      -1.60753544     -2.07171422      1.35037899
C      -0.29575402     -1.86434216      1.53592067
C       0.59689562     -1.29663540      0.46578642
C       1.70787136     -0.30276448      0.95687839
C       1.09654692      0.97901877      1.61523187
H       4.61815966      0.49407816     -0.61085874
H       4.30527377     -0.99638244      0.30462496
H       4.22359873      0.59262574      1.09821772
H       2.58789108     -1.50113571     -1.46478991
H       2.87572783      0.04544502     -2.24162494
H       0.61177056     -1.09922283     -2.61495241
H       0.62394655      0.63389556     -2.32696946
H      -0.26568986      3.43019291      1.87972390
H      -2.30354911      4.12273996      0.63809789
H      -3.77631557      1.96009504     -1.77077889
H      -1.46821849     -1.79381039     -1.88868123
H      -3.18360467     -1.04700038      0.40379596
H      -3.63518624     -2.65401299     -1.03081573
H      -2.18997549     -2.52219618      2.15105780
H       0.16508358     -2.17594613      2.47043429
H       1.09227974     -2.18389610      0.04473635
H       2.31126191     -0.81855643      1.71651244
H       0.72772306      0.71467331      2.61454968
H       1.86971373      1.74539424      1.75136029
