16
Nc1cccc(N)c1
N      -2.40919566     -0.82690426      0.61209249
C      -1.21758008     -0.22544780      0.18395277
C      -1.18045283      1.14212790     -0.09130849
C       0.02142610      1.76094361     -0.43605424
C       1.20682571      1.02539302     -0.44542489
C       1.21102768     -0.31307859     -0.05060048
N       2.38609183     -1.07195421     -0.14188690
C      -0.01137234     -0.93466393      0.23144597
H      -3.24361172     -0.37566745      0.25068561
H      -2.42656567     -1.83260928      0.47436189
H      -2.09136008      1.73325956     -0.06059603
H       0.03425602      2.81539494     -0.69716360
H       2.13085659      1.51285103     -0.74322315
H       3.23267121     -0.52348350     -0.02803142
H       2.38118210     -1.89732135      0.44926395
H      -0.02419887     -1.98883968      0.49248653
