17
O=C(O)c1cc(O)ccc1O
O      -2.28658154     -2.04100594     -0.11415574
C      -1.92714818     -0.93399213     -0.48047177
O      -2.70812496     -0.15188276     -1.24245264
C      -0.62110250     -0.33054138     -0.14042013
C      -0.27192395      0.94698203     -0.59506204
C       0.96637676      1.48463112     -0.25578777
O       1.26294413      2.73149922     -0.72102628
C       1.86856752      0.77371079      0.53032990
C       1.52481260     -0.49948263      0.98549211
C       0.28693631     -1.04886702      0.65216110
O       0.03545962     -2.30307988      1.14291198
H      -3.52520998     -0.67388950     -1.38458026
H      -0.95221980      1.52942100     -1.21049812
H       2.14979650      2.98024267     -0.41141837
H       2.83542785      1.18882500      0.79752092
H       2.21927931     -1.06652498      1.60029207
H      -0.85728969     -2.58604561      0.84716504
