15
O=C1OC(=O)c2ccccc21
O      -2.49183963      2.02359652      0.23069329
C      -1.99000626      0.92268281      0.13515571
O      -2.62786019     -0.27762041      0.07259098
C      -1.75783063     -1.31862326     -0.03162718
O      -2.02318201     -2.50058673     -0.10596520
C      -0.43697926     -0.73157158     -0.03644398
C       0.80427559     -1.33572483     -0.12277235
C       1.92692464     -0.50269034     -0.10321605
C       1.78218648      0.89453972      0.00075632
C       0.51312440      1.47490208      0.08637677
C      -0.57744386      0.62440334      0.06445946
H       0.90040745     -2.41441519     -0.20249123
H       2.92363742     -0.93622243     -0.16888157
H       2.66847392      1.52700045      0.01441309
H       0.38611196      2.55032985      0.16695194
