34
c1cc2c3c(c4ccc5ccccc5c4cc3c1)CC2
C      -3.62144936     -1.99494955      1.44714923
C      -4.18591024     -0.98479368      0.65355125
C      -3.34024112     -0.10611590     -0.00286376
C      -1.98263974     -0.24353402      0.13757282
C      -1.31127640      0.71018497     -0.58113661
C       0.08829160      0.73670677     -0.56607641
C       0.78985705      1.70394964     -1.29441307
C       2.18079260      1.73672757     -1.28439117
C       2.91531641      0.80550095     -0.54741103
C       4.31922336      0.87160159     -0.56278362
C       5.09034885     -0.03630089      0.15710869
C       4.46423307     -1.02276033      0.90215183
C       3.06796736     -1.09864362      0.92527547
C       2.24529852     -0.19348722      0.20619912
C       0.80457857     -0.23495217      0.20165299
C       0.03909395     -1.20215931      0.92837449
C      -1.36942741     -1.22196366      0.90793186
C      -2.22463500     -2.11824435      1.57768187
C      -2.28847737      1.60636868     -1.29730269
C      -3.67777221      1.04504118     -0.89946847
H      -4.27121338     -2.69341886      1.96951042
H      -5.26386872     -0.89836240      0.55954085
H       0.26158549      2.44990330     -1.88325277
H       2.68665456      2.50565369     -1.86469270
H       4.82767055      1.63964285     -1.14233130
H       6.17454955      0.02883425      0.13437121
H       5.05564641     -1.73743916      1.46843605
H       2.63202194     -1.89152493      1.52582069
H       0.53552464     -1.96044516      1.52593788
H      -1.81215209     -2.90910571      2.19825549
H      -2.18505332      2.64529713     -0.96684836
H      -2.14917002      1.55333751     -2.38222103
H      -4.26560546      1.80053181     -0.36815175
H      -4.22976265      0.70891902     -1.78317749
