20
Cc1cc(C)cc(N)c1
C       2.71982343     -0.63565175     -0.39808620
C       1.26355599     -0.37547343     -0.15075264
C       0.78952235      0.93509982     -0.02219562
C      -0.57675392      1.18545923      0.14940377
C      -1.08756628      2.59373835      0.22290273
C      -1.47021250      0.10554256      0.17699176
C      -1.01217017     -1.21228270      0.09856455
N      -1.92505663     -2.27193046      0.01209465
C       0.34946033     -1.43788601     -0.11979859
H       3.01960345     -1.60344944      0.01751211
H       2.92313892     -0.63357237     -1.47334221
H       3.34022254      0.12892663      0.08123452
H       1.48766943      1.76827988     -0.07460506
H      -0.34541903      3.25505381      0.68236256
H      -1.31600720      2.96202507     -0.78193397
H      -1.99380365      2.64887469      0.83520653
H      -2.53719693      0.29753761      0.25890268
H      -1.52976691     -3.16932942      0.27380378
H      -2.80554229     -2.08722865      0.48188176
H       0.70649908     -2.45373342     -0.27014712
