31
O=C(Cn1ccnc1[N+](=O)[O-])NCc1ccccc1
O      -0.47774819     -2.68072217     -0.46987372
C      -0.44845149     -1.72297053     -1.23840463
C      -1.71615872     -1.09597401     -1.77898621
N      -2.36810070     -0.27669435     -0.77243848
C      -3.42862232     -0.71214629     -0.00836869
C      -3.76012097      0.34619879      0.80354297
N      -2.94678459      1.41901362      0.55761098
C      -2.11324724      1.01635030     -0.38476633
N      -1.09083055      1.87428790     -0.93225480
O      -0.42046473      1.43363651     -1.87992540
O      -0.96030811      3.00083758     -0.43839017
N       0.71640802     -1.11332197     -1.65266036
C       1.96412726     -1.36431131     -0.96300066
C       2.10869394     -0.40217529      0.18927240
C       2.65590098      0.87332171     -0.01098458
C       2.72164260      1.78721753      1.04161673
C       2.23848144      1.43790736      2.30115638
C       1.68802568      0.17525539      2.51060630
C       1.62010446     -0.73974524      1.45967136
H      -2.40197603     -1.90257914     -2.06393030
H      -1.54781152     -0.50391108     -2.68147258
H      -3.83494761     -1.71182495     -0.09339247
H      -4.54172435      0.39041295      1.55228796
H       0.63817162     -0.19536993     -2.08541228
H       2.77667637     -1.22054159     -1.68334196
H       2.01049070     -2.40179314     -0.61384701
H       3.02259379      1.16935335     -0.99131846
H       3.14031057      2.77698044      0.87739367
H       2.28350426      2.15355546      3.11805808
H       1.30260018     -0.09402065      3.49066202
H       1.16956528     -1.71622722      1.63195427
