28
CCNCC(O)c1cccc(O)c1
C       3.84002129      0.88327522      1.13307123
C       3.61931083      0.06221974     -0.12925072
N       2.49346478     -0.86403479     -0.01940067
C       1.18958041     -0.17381217      0.02441430
C       0.03356257     -1.18247749     -0.18029903
O       0.16450434     -1.79943137     -1.46981673
C      -1.32749226     -0.52964630     -0.05838388
C      -2.13183741     -0.77506732      1.06483022
C      -3.38532657     -0.17002576      1.18752162
C      -3.85029569      0.68861434      0.19193092
C      -3.05409283      0.93606056     -0.92071918
O      -3.46658980      1.76874393     -1.91835295
C      -1.80460627      0.33893242     -1.05231854
H       4.75762057      1.47334484      1.03911779
H       3.94546687      0.23758992      2.01128386
H       3.01612349      1.58059316      1.31317213
H       3.49991987      0.72216382     -0.99638117
H       4.52299259     -0.53097627     -0.31067585
H       2.47522365     -1.46637600     -0.84878450
H       1.15289972      0.57961416     -0.77245014
H       1.06561278      0.33347580      0.98759015
H       0.11905077     -1.98970274      0.55766670
H      -0.71668591     -2.13427159     -1.71027146
H      -1.78646756     -1.43898983      1.85533939
H      -3.99856201     -0.36883832      2.06310316
H      -4.82584388      1.15125616      0.30160263
H      -4.34432481      2.11586575     -1.68976905
H      -1.20322953      0.55190012     -1.93374237
