26
c1ccc(N=NNc2ccccc2)cc1
C       4.82613103      0.34664050     -0.33267809
C       4.44940371     -0.96451365     -0.04381559
C       3.17299657     -1.22869420      0.45774191
C       2.26157416     -0.18787595      0.66619104
N       0.99087615     -0.46489677      1.19962965
N       0.13250006     -0.41489862      0.29680857
N      -1.04729171     -0.68852733      0.88920769
C      -2.23706244     -0.28869298      0.25166238
C      -3.44163574     -0.32161106      0.96942043
C      -4.65417918      0.01037566      0.35805687
C      -4.68206991      0.35893195     -0.98960654
C      -3.50069039      0.36477228     -1.72648024
C      -2.29003843      0.03183528     -1.11165330
C       2.65431865      1.12638564      0.38291868
C       3.93001491      1.39325735     -0.11864382
H       5.81943573      0.55301260     -0.72360330
H       5.14769390     -1.78106057     -0.20804872
H       2.88052408     -2.25071372      0.68399085
H      -1.04614196     -0.59179459      1.89837441
H      -3.44591441     -0.60869162      2.01780493
H      -5.57596425     -0.01147828      0.93328854
H      -5.62378508      0.61435451     -1.46804270
H      -3.51783720      0.62015278     -2.78266127
H      -1.38328160      0.02475984     -1.71154824
H       1.95734304      1.94295621      0.55244921
H       4.22308031      2.41601474     -0.34076336
