39
CCOC(=O)C1(c2ccccc2)CCN(C)CC1
C      -2.94133397     -2.10199710     -1.67361198
C      -1.47776843     -2.47660226     -1.53472127
O      -0.69952789     -1.31217555     -1.22248293
C      -0.61003698     -0.98838783      0.10093320
O      -1.13023463     -1.63939503      1.00076312
C       0.18475814      0.32176671      0.31804754
C      -0.81020423      1.50352572      0.21098953
C      -1.37190376      1.84567714     -1.03613585
C      -2.28505577      2.89616813     -1.16266525
C      -2.66573780      3.62691786     -0.04354450
C      -2.13733452      3.30232775      1.20099403
C      -1.22366262      2.25047048      1.32795381
C       0.86943883      0.22443043      1.71136207
C       1.96087766     -0.84730935      1.76619127
N       2.98467623     -0.59401463      0.75004782
C       4.05918240     -1.58286373      0.84631790
C       2.40988545     -0.58636360     -0.59576859
C       1.32557330      0.48635770     -0.72424352
H      -3.33840773     -1.71105284     -0.73148536
H      -3.06653453     -1.31330259     -2.42284774
H      -3.53733944     -2.96942547     -1.97075566
H      -1.10486282     -2.86310485     -2.48884106
H      -1.33230947     -3.26665924     -0.78928357
H      -1.11389546      1.29043847     -1.93546197
H      -2.70066878      3.13879067     -2.13721535
H      -3.37637730      4.44311628     -0.13905793
H      -2.43792221      3.86540244      2.08110146
H      -0.85274594      2.03456279      2.32624446
H       0.13694384      0.00310518      2.49840103
H       1.32445703      1.19096863      1.97079971
H       2.41653347     -0.81194797      2.76364603
H       1.52622505     -1.84796645      1.64998910
H       4.85091850     -1.36259483      0.12162636
H       3.70033845     -2.60273875      0.66631936
H       4.52448088     -1.55048179      1.83777709
H       2.00481161     -1.57195018     -0.85775166
H       3.19442253     -0.35974247     -1.32852630
H       1.78972110      1.47563324     -0.60104192
H       0.95061978      0.46041690     -1.75406247
