40
O=C1NC(c2ccccc2)(c2ccccc2)C(=O)N1COP(=O)(O)O
O       2.40417457     -0.07216162      1.72056229
C       1.55322623      0.06466602      0.85226296
N       0.21395309      0.17169898      1.11098152
C      -0.59940743      0.18097995     -0.09378717
C      -1.40509876      1.48001548     -0.24719969
C      -1.33950152      2.52771066      0.69005088
C      -2.08713989      3.69553493      0.51522702
C      -2.91044342      3.84038107     -0.59788695
C      -2.98670850      2.81971975     -1.54044350
C      -2.24101925      1.65199060     -1.36833165
C      -1.47749035     -1.07943229     -0.07838594
C      -2.55451005     -1.16364418      0.82985815
C      -3.36310785     -2.30036665      0.89090529
C      -3.11012870     -3.37945688      0.05065359
C      -2.05033603     -3.32177757     -0.84975672
C      -1.23946072     -2.18460898     -0.91395896
C       0.55481913      0.15651589     -1.14686562
O       0.42386005      0.16801187     -2.36646781
N       1.75066575      0.10350839     -0.48772389
C       3.04049900      0.02881189     -1.11843664
O       3.61200014     -1.21472380     -0.78969892
P       5.01984738     -1.22396191     -0.03616023
O       5.51280610     -2.54538996      0.43654939
O       4.90842762     -0.10101393      1.08941163
O       5.99404866     -0.52282467     -1.09188529
H      -0.15167996      0.00650818      2.03748420
H      -0.70432303      2.45793435      1.57010017
H      -2.02395328      4.49548181      1.24905525
H      -3.48968363      4.75010942     -0.73310187
H      -3.62460816      2.93125056     -2.41379104
H      -2.31492135      0.87123470     -2.12552526
H      -2.77970937     -0.33267989      1.49672571
H      -4.19170220     -2.34152311      1.59346777
H      -3.73841741     -4.26523387      0.09584986
H      -1.85159928     -4.16517621     -1.50718238
H      -0.42489959     -2.19057915     -1.63557236
H       2.94125887      0.09342308     -2.20570261
H       3.64481405      0.87337751     -0.77272434
H       4.16303349     -0.27938310      1.71102842
H       6.92241561     -0.68492731     -0.84211397
