15
CC=C(C)C
C       1.77166675     -1.01735199     -0.37457754
C       1.01023558      0.19543663      0.05692683
C      -0.30343139      0.30281250      0.33579541
C      -0.88887512      1.62584710      0.75917342
C      -1.30584203     -0.81600748      0.26694820
H       2.56615586     -1.22769369      0.34843563
H       2.23881379     -0.83010907     -1.34664674
H       1.15897540     -1.91533901     -0.46688422
H       1.63065653      1.08730756      0.14630823
H      -0.13655743      2.42057752      0.80029894
H      -1.33658575      1.54082770      1.75480530
H      -1.66510688      1.93984868      0.05360845
H      -0.87673541     -1.77145404     -0.04001695
H      -1.76767408     -0.96656103      1.24853793
H      -2.09569582     -0.56814137     -0.45010581
