34
Cc1ccnc2c1NC(=O)c1cccnc1N2C1CC1
C       4.11125204      0.44318818      0.41352255
C       2.93973020     -0.26734883     -0.21211868
C       3.20014252     -1.24687280     -1.17264726
C       2.13586464     -1.90626814     -1.74343058
N       0.85424249     -1.66326829     -1.41801151
C       0.56566950     -0.70636800     -0.48794352
C       1.59693085      0.02184254      0.13483718
N       1.39047987      0.96469122      1.15553795
C       0.29697650      1.70508365      1.49712914
O       0.38019549      2.43061179      2.49080667
C      -0.90780815      1.78047132      0.66007042
C      -1.60916387      3.00180263      0.68360251
C      -2.79500856      3.14645952     -0.02091762
C      -3.25358841      2.05284605     -0.71759837
N      -2.60834344      0.86807918     -0.74776318
C      -1.42631841      0.71993454     -0.07192559
N      -0.80016590     -0.55333682     -0.11088525
C      -1.69375065     -1.67813915     -0.51463335
C      -1.60230291     -3.02788062      0.15529944
C      -2.80048290     -2.16141272      0.39145250
H       4.00125730      1.52769359      0.31069959
H       4.19298217      0.17881457      1.47261242
H       5.05480146      0.16852573     -0.07055526
H       4.21243115     -1.49733864     -1.47286619
H       2.28592625     -2.67616704     -2.49462215
H       2.18338765      1.21515115      1.73218338
H      -1.22963385      3.84042740      1.26490250
H      -3.34644387      4.07940606     -0.01317901
H      -4.17925015      2.09099712     -1.28451653
H      -1.90138074     -1.67316351     -1.58306023
H      -1.71336365     -3.90178933     -0.47465467
H      -0.89064521     -3.14712979      0.96299468
H      -2.90704497     -1.69116630      1.36128750
H      -3.73757446     -2.43837626     -0.07560949
