6
O=[Se]([O-])[O-].[Na+].[Na+]
O      -0.06817828      1.58668485     -0.16057061
Se      0.00214060      0.05250740      0.44314520
O      -1.47363663     -0.87015578     -0.14043437
O       1.53967431     -0.76903648     -0.14214022
Na      0.00000000      0.00000000      0.00000000
Na      0.00000000      0.00000000      0.00000000
