23
CCCCCC(=O)OC
C      -4.03878622     -0.00918656     -0.24267244
C      -2.68360707     -0.69587658     -0.30142836
C      -1.54507648      0.28809477     -0.03357719
C      -0.18407494     -0.40629922     -0.09354911
C       0.95423921      0.57670852      0.17409952
C       2.30601323     -0.09583770      0.11801589
O       2.50269013     -1.28049311     -0.11101337
O       3.27991095      0.82697036      0.36362524
C       4.60442767      0.29371816      0.33422605
H      -4.83820586     -0.73103381     -0.43703461
H      -4.21233894      0.43252047      0.74379088
H      -4.10882424      0.78536499     -0.99241831
H      -2.55530861     -1.15417004     -1.28895784
H      -2.65825308     -1.50506877      0.43767502
H      -1.68043533      0.74666052      0.95357221
H      -1.57748970      1.09755190     -0.77303376
H      -0.15077462     -1.21888791      0.64299744
H      -0.04809078     -0.86889582     -1.07915762
H       0.83423365      1.01958813      1.16914434
H       0.93834166      1.37443898     -0.57691903
H       5.30261145      1.10936710      0.54161857
H       4.72684557     -0.47174544      1.10690768
H       4.83195236     -0.11348892     -0.65591123
