29
CNc1cnn(-c2cccc(C(F)(F)F)c2)c(=O)c1Cl
C      -4.82989162     -0.25931809     -1.61359714
N      -4.30922516     -0.55186416     -0.29609028
C      -2.99520453     -0.39382040      0.13292058
C      -1.89119584     -0.34031699     -0.84842335
N      -0.63402345     -0.19001488     -0.60350010
N      -0.22698814     -0.07071758      0.71025537
C       1.20113485      0.09773103      0.85124083
C       1.84286558      0.24051073      2.08921364
C       3.23209873      0.39879310      2.18263222
C       4.01822659      0.42106190      1.03570725
C       3.42059793      0.29112453     -0.22017716
C       4.24886695      0.29187540     -1.47972220
F       5.48287322      0.84670099     -1.31457927
F       3.66699366      0.98472072     -2.49858030
F       4.46680316     -0.96406107     -1.95863029
C       2.02360128      0.12491899     -0.29525865
C      -1.13471381     -0.12019484      1.78168110
O      -0.85097325     -0.03125726      2.97623896
C      -2.57267412     -0.29236559      1.40065419
Cl     -3.72551398     -0.33931260      2.70353036
H      -4.64059529      0.78407732     -1.88371015
H      -4.38505838     -0.91576668     -2.36729572
H      -5.91156178     -0.42475629     -1.62626052
H      -4.98668265     -0.43854209      0.46010776
H      -2.18207658     -0.44311906     -1.90523599
H       1.29908881      0.23373757      3.02768050
H       3.69472199      0.50316968      3.16187340
H       5.09646404      0.54133627      1.12684324
H       1.58204179      0.01566934     -1.28557585
