29
NC(=Nc1ccccc1)Nc1ccccc1
N      -0.54509911      0.47511364     -2.69435606
C       0.21267578      0.18824221     -1.60262091
N       1.49803901      0.34601785     -1.72424881
C       2.32882794      0.03675612     -0.63994157
C       2.97206215     -1.20162721     -0.58099058
C       3.79744399     -1.51865856      0.49955823
C       3.99060185     -0.59149470      1.52326424
C       3.36515357      0.65342673      1.46326165
C       2.54110954      0.96715148      0.38101260
N      -0.46664177     -0.32848184     -0.53265411
C      -1.74851528      0.00242480     -0.04232904
C      -2.32806373     -0.84385253      0.91726575
C      -3.61033423     -0.60121409      1.41755152
C      -4.33940478      0.49152696      0.95890928
C      -3.78602815      1.33669805      0.00120166
C      -2.50303594      1.08915406     -0.49811778
H       0.03920654      0.58267008     -3.51590049
H      -1.29655805     -0.18845476     -2.83518267
H       2.82845785     -1.91807013     -1.38499613
H       4.29472645     -2.48418772      0.53717420
H       4.63761863     -0.83468717      2.36232793
H       3.52377745      1.38300745      2.25291697
H       2.05991397      1.94013180      0.32669983
H       0.13410762     -0.66102620      0.21336305
H      -1.78239629     -1.71255659      1.27859614
H      -4.03862413     -1.26839701      2.16087601
H      -5.33646378      0.68458515      1.34572240
H      -4.34864300      2.19416305     -0.35907863
H      -2.09391410      1.78163911     -1.22928468
