34
OC(Cn1cncn1)(Cn1cncn1)c1ccc(F)cc1F
O       1.32878595     -1.02374078      1.78637996
C       0.69871968     -0.04424633      0.92621310
C       1.77644597      0.41874785     -0.09882155
N       2.27851318     -0.62524589     -0.97521443
C       2.61649101     -0.51124342     -2.28769274
N       3.02596809     -1.67473572     -2.73619615
C       2.93777598     -2.47936579     -1.63688285
N       2.48706939     -1.88115261     -0.52938928
C       0.33727520      1.13121182      1.87000450
N      -0.41210325      2.19803972      1.25226365
C      -1.72879297      2.49501697      1.41251380
N      -2.02900906      3.54764573      0.68763540
C      -0.83839719      3.87277378      0.10566756
N       0.18244921      3.06567518      0.41156717
C      -0.57882992     -0.66514401      0.34769907
C      -0.97560924     -0.47876746     -0.98975595
C      -2.15470895     -1.05394915     -1.47609037
C      -2.95812951     -1.80712938     -0.63081694
F      -4.08697537     -2.35059180     -1.10269285
C      -2.61476627     -1.98687879      0.69726579
C      -1.44088610     -1.41233723      1.17410146
F      -1.16545901     -1.55584087      2.47812261
H       1.70352323     -1.71829095      1.19688184
H       1.40922733      1.21402595     -0.75301645
H       2.66257121      0.79186437      0.43022193
H       2.54761848      0.40884283     -2.85172524
H       3.20918832     -3.52769553     -1.64452127
H      -0.24360620      0.77792392      2.73191008
H       1.24563899      1.57550125      2.29801311
H      -2.40265125      1.93249768      2.04456197
H      -0.71421139      4.71715402     -0.56075272
H      -0.39536165      0.12224328     -1.68468067
H      -2.45349657     -0.91294069     -2.51124817
H      -3.25426734     -2.55986795      1.35845402
