41
O=C(O)CCCCCCCCCCCC(=O)O
O      -7.53059430      0.15080492      0.13669279
C      -6.67147153      0.25880683      0.99404683
O      -7.00802779      0.30082963      2.29865792
C      -5.18173684      0.34917796      0.79775108
C      -4.81158927      0.39836909     -0.68399254
C      -3.31871915      0.63069363     -0.93078831
C      -2.43646791     -0.52151318     -0.44513151
C      -0.96888533     -0.29008931     -0.81624428
C      -0.08551862     -1.43834685     -0.32320133
C       1.37525569     -1.31657989     -0.76635352
C       2.10014977     -0.11776562     -0.15055142
C       3.58246049     -0.11058482     -0.53334651
C       4.30817439      1.09120810      0.07880279
C       5.77814153      1.15206621     -0.32527976
C       6.58711653      0.03807747      0.27618770
O       7.09363981     -0.89217235     -0.32793143
O       6.72796104      0.15174760      1.60981539
H      -7.98566682      0.22957356      2.29272549
H      -4.72959098     -0.52538620      1.27609117
H      -4.82633175      1.25702315      1.29750947
H      -5.36992406      1.20948325     -1.16883525
H      -5.12830424     -0.52929390     -1.17699758
H      -3.16793886      0.76759738     -2.00884739
H      -3.00742913      1.56490899     -0.44772439
H      -2.51803702     -0.62465171      0.64269199
H      -2.78364170     -1.46226835     -0.88905696
H      -0.87579345     -0.19624127     -1.90487805
H      -0.63477044      0.65668940     -0.37754240
H      -0.48132756     -2.38563958     -0.71013906
H      -0.13392539     -1.49987645      0.77081395
H       1.42395020     -1.25710086     -1.86046580
H       1.89701106     -2.23736633     -0.47707929
H       1.63848709      0.81578875     -0.49078217
H       2.00366151     -0.15056360      0.94134063
H       3.67858135     -0.08043686     -1.62551086
H       4.04977127     -1.04195801     -0.19252249
H       4.21696037      1.05723551      1.17113850
H       3.81791816      2.01400676     -0.25452460
H       5.88302511      1.10825870     -1.41533862
H       6.22310418      2.10149518     -0.00572151
H       7.27032259     -0.62600689      1.85824770
