49
CC(C)(c1ccc(OCC2CO2)cc1)c1ccc(OCC2CO2)cc1
C       0.54623951     -3.24699705     -1.44715031
C       0.20070646     -2.24340982     -0.31154962
C      -0.07322412     -3.12131270      0.93971556
C       1.41879121     -1.29920424     -0.15364289
C       2.18381292     -1.22202969      1.02278397
C       3.28647888     -0.35688562      1.12686738
C       3.65289160      0.44981635      0.05382193
O       4.70993857      1.31771450      0.01472807
C       5.44177254      1.51148973      1.22690529
C       6.53723236      2.48675690      0.94256210
C       6.27087999      3.97155870      0.93431252
O       6.91815435      3.32283712      2.04424284
C       2.90104708      0.39084142     -1.11901358
C       1.79701128     -0.46445693     -1.22145995
C      -1.09008519     -1.43036992     -0.57118441
C      -1.48393496     -0.43874678      0.34858714
C      -2.65985554      0.30133247      0.17308229
C      -3.47310608      0.06741870     -0.93116322
O      -4.64046022      0.72011219     -1.21720950
C      -5.26031872      1.40908966     -0.13385016
C      -6.59311468      1.90195110     -0.59689590
C      -7.80706580      1.00980294     -0.60633483
O      -7.58600785      1.97738690      0.43466767
C      -3.08764763     -0.89303275     -1.86390297
C      -1.91533535     -1.63896675     -1.68605865
H      -0.23692226     -4.00701101     -1.56621679
H       1.48120922     -3.77989140     -1.23099081
H       0.67641040     -2.75591470     -2.41730442
H      -0.94806994     -3.76653197      0.78624271
H       0.77675363     -3.77644144      1.16526659
H      -0.27273764     -2.52409203      1.83655170
H       1.94562563     -1.83213476      1.88942527
H       3.83607015     -0.34798575      2.06140133
H       4.77757537      1.89476560      2.01341165
H       5.89609311      0.56531577      1.55389097
H       7.30907775      2.08783687      0.29897031
H       5.25630756      4.32095924      1.07778295
H       6.87931671      4.59630564      0.29386228
H       3.17047695      1.01977995     -1.96472184
H       1.23035254     -0.46846918     -2.15257009
H      -0.86575004     -0.22592875      1.22009181
H      -2.89828328      1.05648701      0.91249284
H      -5.37705359      0.73926734      0.72881510
H      -4.65224283      2.27409882      0.15560527
H      -6.52815824      2.72856152     -1.29386460
H      -8.58395521      1.21879851     -1.33060452
H      -7.67992220     -0.04273661     -0.36438639
H      -3.71074211     -1.07469045     -2.73693269
H      -1.67623229     -2.38304462     -2.43997588
