9
N#CCC(=O)O
N      -2.79195894      0.48063780     -0.41686541
C      -1.74188711      0.04494839     -0.18168946
C      -0.45023922     -0.56486619      0.13031304
C       0.67889927      0.40345491     -0.05864125
O       0.62880068      1.56536981     -0.42077355
O       1.87413632     -0.15886795      0.22946727
H      -0.27969727     -1.42584748     -0.52431160
H      -0.44309977     -0.90444286      1.17124709
H       2.52504604      0.55961356      0.07125386
