42
CO/N=C(\C(=O)OC)c1ccccc1COc1ccccc1C
C      -2.52006428      1.03937641      3.34476701
O      -2.95681168      0.74741688      2.02256761
N      -2.07553491     -0.18655358      1.45948856
C      -2.46733729     -0.54458563      0.26867427
C      -3.72616955      0.01539213     -0.37406612
O      -4.80986051     -0.53400379     -0.30157058
O      -3.40463232      1.14608028     -1.03780232
C      -4.51706076      1.76560009     -1.67924414
C      -1.67891828     -1.52215543     -0.52812328
C      -2.37625893     -2.51425081     -1.23758256
C      -1.68378475     -3.47027248     -1.97929938
C      -0.29399780     -3.44787290     -2.01235891
C       0.40707220     -2.46664999     -1.30915523
C      -0.26752403     -1.47851634     -0.56766870
C       0.51505494     -0.41864653      0.18844395
O       1.84659072     -0.30035155     -0.32220541
C       2.67680165      0.60516996      0.28674482
C       2.31300038      1.43499587      1.35258324
C       3.23800518      2.32620292      1.90234317
C       4.53093597      2.39538853      1.39258102
C       4.90289500      1.57358158      0.33027992
C       3.98342278      0.67457523     -0.23117400
C       4.40338507     -0.20292948     -1.37796658
H      -3.20447988      1.77117655      3.78147390
H      -1.51227143      1.46573159      3.32482315
H      -2.53440237      0.13246937      3.95701317
H      -4.16405229      2.68063686     -2.16288078
H      -4.93220520      1.10576544     -2.44757915
H      -5.28341815      2.03612314     -0.94595822
H      -3.46233314     -2.57565006     -1.20225086
H      -2.22888259     -4.23990535     -2.52039008
H       0.24985034     -4.19751469     -2.58227157
H       1.49543432     -2.47764462     -1.34832492
H       0.01729470      0.54898649      0.05739189
H       0.55205136     -0.71405361      1.24363466
H       1.31620678      1.41609256      1.78128261
H       2.94638788      2.96725170      2.73030173
H       5.24961082      3.08894189      1.82114759
H       5.91645634      1.63806765     -0.05895158
H       3.78537288      0.00208552     -2.25812679
H       5.44746940     -0.02724665     -1.65754838
H       4.30670144     -1.25830512     -1.10304273
