7
O=[N+]([O-])C(Cl)(Cl)Cl
O       1.55958500     -0.94082788     -0.52256621
N       0.94124267     -0.00756847      0.01854388
O       1.50838138      0.93870253      0.59670099
C      -0.59783078     -0.00456090     -0.01741427
Cl     -1.14154414     -0.03173728      1.66960656
Cl     -1.07975029      1.47960966     -0.85852241
Cl     -1.19008384     -1.43361766     -0.88634853
