8
O=C(O)C(=O)O
O      -0.28920335      1.71364849     -0.18438403
C       0.35347418      0.67947949     -0.15207678
O       1.68712495      0.55110054     -0.21630385
C      -0.35347406     -0.67947966     -0.02519508
O       0.28920202     -1.71364948      0.00711051
O      -1.68712550     -0.55110023      0.03903049
H       1.93221384     -0.40322596     -0.16755582
H      -1.93221207      0.40322681     -0.00971821
