56
Nc1c(S(=O)(=O)[O-])cc(Nc2cccc(S(=O)(=O)CCOS(=O)(=O)[O-])c2)c2c1C(=O)c1ccccc1C2=O.[Na+].[Na+]
N      -5.62269207     -2.30518422      0.16857470
C      -4.38081390     -1.80597488      0.61814533
C      -3.42219062     -2.64403231      1.21238497
S      -3.81350815     -4.32257149      1.79773717
O      -3.27573121     -4.31100299      3.15571297
O      -3.09367618     -5.15188387      0.83655293
O      -5.27364328     -4.39160647      1.72618740
C      -2.10924814     -2.20602804      1.45450054
C      -1.68909515     -0.93385396      1.06619909
N      -0.33935657     -0.53443791      1.22930937
C       0.86633478     -1.19492992      0.90446286
C       0.93344679     -2.48649721      0.36813134
C       2.16409962     -3.10022705      0.10268504
C       3.35489181     -2.43074471      0.36867143
C       3.30155628     -1.14418374      0.90253246
S       4.81184971     -0.26660069      1.24879224
O       4.55047306      0.59044792      2.39081611
O       5.87531336     -1.25373160      1.29550401
C       5.01843847      0.74158345     -0.19662070
C       6.29415365      1.54921531     -0.12369454
O       6.33054299      2.38993593     -1.26658772
S       7.75405546      3.09056614     -1.64600058
O       8.56711457      1.97051941     -2.10953865
O       7.39025374      4.05026734     -2.68282951
O       8.19599569      3.68841398     -0.38978336
C       2.07350008     -0.53847313      1.19292806
C      -2.64347518     -0.07340756      0.47307628
C      -3.96682722     -0.50335122      0.25198105
C      -4.94233624      0.44605099     -0.35704362
O      -6.15549673      0.25935619     -0.31511174
C      -4.44911177      1.67151560     -1.00709270
C      -5.30907348      2.43615975     -1.80728443
C      -4.84878282      3.60926248     -2.40780560
C      -3.53422365      4.02543101     -2.20433900
C      -2.68004907      3.26813054     -1.40128901
C      -3.14081761      2.08614131     -0.80507937
C      -2.24300089      1.29507308      0.04952554
O      -1.17006393      1.78410995      0.39412512
Na      0.00000000      0.00000000      0.00000000
Na      0.00000000      0.00000000      0.00000000
H      -6.35258564     -1.59251039      0.12678050
H      -5.90601544     -3.14022712      0.71422100
H      -1.42300055     -2.88431418      1.96036158
H      -0.24087942      0.48361616      1.12460819
H       0.03081450     -3.04303246      0.12928071
H       2.18185897     -4.10648436     -0.30963911
H       4.30570928     -2.91640676      0.16365304
H       4.14753478      1.39957299     -0.27922025
H       5.03033639      0.08710588     -1.07407480
H       6.31130826      2.17003710      0.77818032
H       7.16492118      0.88359284     -0.10559443
H       2.05200316      0.45197483      1.64390781
H      -6.33743033      2.11705448     -1.96476531
H      -5.51712201      4.19760592     -3.03149140
H      -3.17125362      4.93933499     -2.66878157
H      -1.65500570      3.59962264     -1.24282762
