36
O=C(O)CN(CCN(CC(=O)O)CC(=O)O)CC(=O)O
O       4.48641223      0.74473938      0.34257538
C       3.70769260      0.69147570      1.28118579
O       4.11376442      1.07452431      2.51210007
C       2.23787114      0.27273070      1.27213186
N       1.84196999     -0.38779393      0.00225271
C       0.37587031     -0.51150514     -0.12177560
C      -0.29151922      0.81123796     -0.58398136
N      -1.77029064      0.70850163     -0.69942202
C      -2.15865361     -0.00709460     -1.94626406
C      -3.60036437     -0.49966834     -1.85350243
O      -4.33391181     -0.45565485     -0.87884568
O      -4.03345510     -1.03632810     -3.01148306
C      -2.36082101      2.08573013     -0.71151442
C      -2.56236415      2.56377814      0.72655898
O      -2.61716528      3.73618798      1.06607605
O      -2.72861098      1.52659059      1.58883400
C       2.51281724     -1.70201552     -0.17785429
C       2.07728243     -2.76603687      0.82021736
O       1.06260764     -3.44379201      0.76102229
O       2.92153346     -2.88221091      1.86717052
H       5.04347484      1.35750272      2.36772619
H       1.67521750      1.20350236      1.40579457
H       2.03942909     -0.37238447      2.13525187
H       0.14728309     -1.27933258     -0.87035351
H      -0.07125649     -0.84659069      0.82293117
H       0.14386389      1.14296076     -1.53658172
H      -0.04968987      1.58346192      0.15673248
H      -1.54852551     -0.90439636     -2.09219064
H      -2.04928353      0.64140503     -2.82312873
H      -4.94542026     -1.33855291     -2.80840545
H      -1.71930168      2.78984968     -1.25091286
H      -3.35665949      2.09673563     -1.17106867
H      -2.63629176      0.69688239      1.06104080
H       3.60390051     -1.60959847     -0.14157978
H       2.30410466     -2.08864671     -1.18355843
H       2.53848972     -3.59619454      2.42039222
