17
O=C1CCCCC1
O       1.65402793      1.90099989     -1.02630010
C       0.95786887      1.11507523     -0.38533443
C      -0.45483977      1.46236653      0.02790962
C      -1.39068400      0.28695230     -0.21833339
C      -0.86240300     -0.99948188      0.41265759
C       0.53464159     -1.32904441     -0.10868515
C       1.51346746     -0.18970637      0.14000621
H      -0.79242631      2.33301446     -0.54392638
H      -0.44077724      1.73508490      1.08869170
H      -2.38370059      0.51596683      0.18419774
H      -1.50898675      0.13449012     -1.29852877
H      -1.54388400     -1.82685461      0.18503105
H      -0.83583842     -0.89378412      1.50398004
H       0.47706666     -1.53247721     -1.18542213
H       0.90286215     -2.24256653      0.37136881
H       2.46521854     -0.40124675     -0.35840078
H       1.70838689     -0.06878838      1.21108837
