21
CCCCCCO
C      -3.10107306     -0.41291443     -0.18391990
C      -1.89050775      0.32094840     -0.73859963
C      -0.64109579      0.05709471      0.10294870
C       0.57377142      0.79540094     -0.46298833
C       1.82741062      0.65742634      0.40788925
C       2.35677029     -0.76737603      0.53382248
O       2.63886472     -1.32054739     -0.74342584
H      -2.93429523     -1.49478932     -0.17576586
H      -3.98254931     -0.20979312     -0.80007622
H      -3.32012321     -0.09097997      0.83916506
H      -2.10295656      1.39608778     -0.76376718
H      -1.71759866     -0.00023846     -1.77236886
H      -0.44733416     -1.02113888      0.12732436
H      -0.81943944      0.37958453      1.13585160
H       0.33599371      1.86309815     -0.54938149
H       0.78325772      0.43964734     -1.47888705
H       1.62914352      1.05950993      1.40818587
H       2.61009066      1.28222084     -0.04025092
H       1.63770380     -1.41818202      1.03920584
H       3.27982671     -0.77725419      1.12268165
H       3.28414000     -0.73780514     -1.17879780
