14
Nc1cccc(Cl)c1
N      -2.25629786     -0.61512253     -0.13409782
C      -0.91346085     -0.24710472      0.01025185
C      -0.57672134      1.07611821      0.31306057
C       0.75886763      1.48670431      0.34417996
C       1.77109264      0.58240645      0.03031721
C       1.43762903     -0.72064266     -0.33057293
Cl      2.68203696     -1.83201373     -0.75571505
C       0.10348093     -1.13004476     -0.36137030
H      -2.42486012     -1.61269914     -0.04673334
H      -2.89875513     -0.06555660      0.42818018
H      -1.35656087      1.80234141      0.52879181
H       1.00534774      2.51406120      0.59930335
H       2.80914380      0.90215349      0.04985268
H      -0.14094254     -2.14060093     -0.67544816
