27
CCN(CC)c1cccc(O)c1
C      -1.26738949      1.99262228      1.61508017
C      -1.29619421      1.50282860      0.17424071
N      -0.85863136      0.10385676      0.08378609
C      -1.92506580     -0.90369471      0.16463082
C      -2.44670314     -1.26102346     -1.21996258
C       0.47986816     -0.24813710     -0.07344519
C       0.88443638     -1.57766550     -0.30385101
C       2.22931366     -1.94303248     -0.46402040
C       3.22401651     -0.97941473     -0.39694464
C       2.86197619      0.33635499     -0.17090271
O       3.86145272      1.26453203     -0.10622024
C       1.51965936      0.69956194     -0.01244269
H      -1.61442454      3.02925782      1.66841414
H      -1.91925641      1.38392252      2.25042421
H      -0.25945694      1.95033717      2.03860070
H      -0.70480079      2.15802572     -0.47506340
H      -2.32391182      1.59302045     -0.20048405
H      -2.76066749     -0.50850398      0.75659772
H      -1.60063589     -1.79947266      0.70584314
H      -3.25323119     -1.99668908     -1.14117119
H      -2.84292327     -0.37736492     -1.73109212
H      -1.66172391     -1.68513000     -1.85319312
H       0.15643457     -2.37921144     -0.37876915
H       2.49001609     -2.98245457     -0.64299320
H       4.26789808     -1.24979629     -0.51897147
H       3.46284882      2.13421011      0.05856041
H       1.29709574      1.74306053      0.17334906
