20
CCCC(C)C
C       2.71823122      0.47250903     -0.47954507
C       1.38523012      0.67316087      0.22580250
C       0.36989662     -0.39533871     -0.18644964
C      -0.95694536     -0.31314041      0.59078998
C      -1.84781418     -1.50257532      0.22359497
C      -1.70771269      0.99330016      0.32904945
H       3.42818090      1.24807867     -0.17552217
H       2.59891077      0.52783705     -1.56630677
H       3.15206166     -0.50107198     -0.23002409
H       1.00899844      1.67200852     -0.01884865
H       1.54396189      0.63847913      1.30970122
H       0.17485386     -0.31591869     -1.26363463
H       0.81517810     -1.38500300     -0.02092607
H      -0.74013547     -0.37531899      1.66474917
H      -2.10332135     -1.49415346     -0.84154409
H      -2.78107119     -1.48172992      0.79637887
H      -1.34382729     -2.44950404      0.44429000
H      -1.14732590      1.85654500      0.70023957
H      -2.67660135      0.99323231      0.84021783
H      -1.89074882      1.13860381     -0.74095423
