48
O=C(NCC1CCCCN1)c1cc(OCC(F)(F)F)ccc1OCC(F)(F)F
O      -0.08159073     -1.09300537      1.96840540
C      -0.24449685     -0.79329384      0.79057097
N       0.55740412     -1.27053444     -0.21902693
C       1.71625383     -2.10994991      0.04047918
C       2.93202771     -1.29953288      0.54434876
C       4.15079423     -2.21742980      0.71409194
C       5.38009298     -1.43002883      1.16489098
C       5.62665457     -0.24103643      0.24082170
C       4.36681589      0.60682642      0.08412616
N       3.23942608     -0.19669116     -0.39363488
C      -1.32625034      0.15804428      0.40030320
C      -1.84281862      0.98998903      1.40645289
C      -2.83184365      1.94033013      1.12877592
O      -3.21699045      2.67937220      2.21013617
C      -4.09828261      3.79254117      2.01823079
C      -5.56782006      3.42591546      2.17394172
F      -6.33774539      4.53629734      2.06037451
F      -5.82690360      2.87748537      3.38269529
F      -5.98019636      2.55956731      1.22186394
C      -3.32312757      2.05123767     -0.17047929
C      -2.83041123      1.21893715     -1.18067342
C      -1.85254315      0.26231431     -0.89351260
O      -1.39663110     -0.52201446     -1.92211281
C      -2.31802952     -1.60485184     -2.17565165
C      -1.72383659     -2.58751793     -3.17286895
F      -0.60527548     -3.17407622     -2.68951348
F      -2.61239590     -3.57030944     -3.45653776
F      -1.40698611     -1.97918312     -4.33953916
H       0.43655166     -0.91777210     -1.16379307
H       1.43932891     -2.86637090      0.78268919
H       1.95045745     -2.62345023     -0.89777146
H       2.67334614     -0.86284785      1.51813838
H       4.37496085     -2.72335024     -0.23493013
H       3.93191254     -3.00171279      1.44992339
H       5.22827912     -1.07119731      2.19066049
H       6.26011954     -2.08251071      1.17962076
H       5.95056925     -0.60378135     -0.74339840
H       6.44229120      0.37485073      0.63929383
H       4.11172640      1.08713149      1.03795614
H       4.56126016      1.40974013     -0.63738970
H       2.41053958      0.39593398     -0.45508741
H      -1.46081211      0.90604341      2.42459986
H      -3.84726918      4.51260004      2.80521207
H      -3.90684228      4.31408910      1.07374722
H      -4.09651434      2.76240704     -0.44035169
H      -3.21350823      1.32307684     -2.19318886
H      -3.24954597     -1.20450690     -2.58887685
H      -2.54214483     -2.13777455     -1.24273033
