19
O=C(O)COc1ccc(Cl)cc1
O       3.67730077      0.05067056     -1.27946417
C       3.28603656     -0.27128459     -0.17014612
O       4.17633057     -0.66519813      0.76877067
C       1.86189435     -0.29982112      0.35276687
O       0.95721540      0.11992776     -0.66117571
C      -0.37082050      0.14752454     -0.34020443
C      -0.92684537     -0.19835501      0.89301507
C      -2.31144902     -0.12277653      1.08376825
C      -3.13736246      0.29784296      0.04306551
Cl     -4.83800071      0.38855159      0.28388107
C      -2.59179121      0.64446744     -1.18925012
C      -1.20987263      0.56815227     -1.37691775
H       5.03993252     -0.60089459      0.30718693
H       1.64146251     -1.33164573      0.64901161
H       1.81205314      0.38454527      1.20726755
H      -0.31728286     -0.53020322      1.72692685
H      -2.73768005     -0.39351579      2.04632834
H      -3.22946427      0.97321708     -2.00504434
H      -0.78165674      0.83879522     -2.33978608
