26
c1ccc2c(c1)-c1cccc3cccc-2c13
C      -3.68383129      0.00437458      0.42421627
C      -3.46383323     -1.32378195      0.00963015
C      -2.17530386     -1.78768896     -0.27429648
C      -1.12545111     -0.89967547     -0.13451862
C      -1.34787471      0.44310758      0.28464460
C      -2.62088886      0.90234424      0.56540430
C      -0.04727144      1.09825296      0.32737111
C       0.35462614      2.37985457      0.65690188
C       1.72525918      2.69032046      0.59056178
C       2.68062854      1.72671151      0.19841377
C       2.27564651      0.42007026     -0.13812879
C       3.07664100     -0.66395656     -0.54785972
C       2.48773130     -1.91262749     -0.84626874
C       1.09862825     -2.11158875     -0.74511653
C       0.30858162     -1.05001999     -0.34323135
C       0.90851814      0.16770426     -0.05514129
H      -4.69788483      0.33551030      0.63770802
H      -4.31127429     -1.99852413     -0.09087732
H      -2.01240488     -2.81090186     -0.59294154
H      -2.79656858      1.92319699      0.88482723
H      -0.36415920      3.13336330      0.96032021
H       2.05759043      3.69429494      0.84670447
H       3.73175032      2.00023316      0.15791123
H       4.15331966     -0.54472369     -0.63651702
H       3.12308987     -2.73796726     -1.16115201
H       0.66473533     -3.07788300     -0.97856559
