25
CC(C)C(=O)OC(=O)C(C)C
C       2.53750882      1.25469575     -0.41107336
C       2.32454658     -0.03516667      0.37289890
C       3.58865841     -0.89118683      0.36993805
C       1.14644506     -0.80273952     -0.21166949
O       1.26887215     -1.76516905     -0.95323143
O      -0.00379231     -0.22195700      0.22560566
C      -1.18344606     -0.75077006     -0.19905523
O      -1.35668172     -1.70660219     -0.93901944
C      -2.31975655      0.06842376      0.39804790
C      -3.62073273     -0.73038728      0.40898413
C      -2.48347688      1.36668559     -0.38388703
H       2.75101474      1.04731454     -1.46559237
H       1.64427368      1.88780597     -0.37639330
H       3.37346521      1.82926050      0.00101165
H       2.08830497      0.20094410      1.41812792
H       3.89555279     -1.15046282     -0.64944460
H       3.42561436     -1.82751371      0.91470567
H       4.41828717     -0.36082059      0.84895680
H      -2.06191982      0.29351732      1.44060016
H      -3.49370287     -1.67318462      0.95217680
H      -4.42065467     -0.16367857      0.89683363
H      -3.94990393     -0.97547575     -0.60695255
H      -1.56258295      1.95933850     -0.35902674
H      -3.28848118      1.97784628      0.03707999
H      -2.71741229      1.16928237     -1.43598443
