16
CC(C)=CCO
C      -1.06598966     -1.20326206      0.27600000
C      -0.57374962      0.19176649      0.00619414
C      -1.61549140      1.26231453      0.20836303
C       0.67492788      0.51824693     -0.38199480
C       1.83499265     -0.38572966     -0.64666190
O       2.85505136     -0.08062151      0.29154897
H      -1.87862524     -1.45456484     -0.41365516
H      -1.44898210     -1.27446848      1.29964400
H      -0.29414565     -1.96752771      0.16721933
H      -2.46764621      1.09202263     -0.45779520
H      -1.97412592      1.25162601      1.24285965
H      -1.22769311      2.26538133      0.00166022
H       0.90847893      1.57073245     -0.54411302
H       1.60106836     -1.44872476     -0.56933764
H       2.22695334     -0.20292223     -1.65179143
H       2.44497639     -0.13426910      1.17185981
