21
C=CC(=O)OCCCC
C       4.15740068      0.99511080      1.09429769
C       3.29889313      0.49423086      0.19711270
C       1.86607782      0.85704449      0.23433110
O       1.35131419      1.60945502      1.04403772
O       1.24657256      0.20416940     -0.78012771
C      -0.16402100      0.44512471     -0.89931435
C      -0.93678624     -0.52764963     -0.01352980
C      -2.44461550     -0.33893106     -0.15516154
C      -3.21292845     -1.31055747      0.72626248
H       3.83093688      1.67961996      1.87308990
H       5.20847215      0.72867812      1.06688717
H       3.62330500     -0.18792488     -0.57898033
H      -0.42451031      0.28297307     -1.95096946
H      -0.40735607      1.48903670     -0.66729861
H      -0.65597118     -1.55555803     -0.27496999
H      -0.63805246     -0.39306753      1.03310408
H      -2.71841780      0.68707079      0.11692325
H      -2.74239889     -0.48836007     -1.19949879
H      -2.98542937     -2.34729549      0.45836965
H      -2.96210636     -1.16516213      1.78187029
H      -4.29037878     -1.15800762      0.60904126
