42
CNCCCN1c2ccccc2CCc2ccccc21
C       4.26632123      0.02991534      2.09947912
N       3.86672083      0.54783580      0.79718286
C       2.63473832     -0.10166342      0.33501910
C       2.24140751      0.46074359     -1.03151818
C       1.03669354     -0.27336161     -1.63806887
N      -0.20025662     -0.12999826     -0.83479229
C      -0.93081950     -1.34103080     -0.69790145
C      -1.14458689     -2.20235098     -1.78901788
C      -1.84754179     -3.40039666     -1.64159535
C      -2.35482860     -3.75799826     -0.39779032
C      -2.16746936     -2.91332941      0.69368240
C      -1.46389581     -1.70642834      0.54811674
C      -1.28108682     -0.78724153      1.72176074
C      -2.07737988      0.49583245      1.52469625
C      -1.64863134      1.45415657      0.42906816
C      -2.21387211      2.75003167      0.53130589
C      -1.92377598      3.75194920     -0.38716857
C      -1.06907436      3.47468151     -1.43773881
C      -0.51278111      2.19789244     -1.56176151
C      -0.77434828      1.15336437     -0.64335926
H       4.47147367     -1.04443626      2.05213815
H       5.18648396      0.52682484      2.42204843
H       3.49936337      0.21562044      2.85850741
H       3.70279371      1.55195734      0.87571872
H       1.83173828      0.07621413      1.05702397
H       2.79292150     -1.18355578      0.25504527
H       2.05404340      1.53644372     -0.94771001
H       3.08545258      0.34754925     -1.72469751
H       1.33472715     -1.32908583     -1.71082607
H       0.86887208      0.05184558     -2.67199293
H      -0.78251424     -1.93389437     -2.77768472
H      -2.00310595     -4.04732504     -2.50053224
H      -2.90392390     -4.68809238     -0.27910950
H      -2.57825147     -3.19692089      1.65964776
H      -1.63037411     -1.28166163      2.63706200
H      -0.21704977     -0.58110074      1.88087443
H      -3.13375852      0.24697891      1.35311763
H      -2.03029910      1.04047337      2.47788772
H      -2.89567722      2.97907349      1.34912537
H      -2.36961755      4.73684608     -0.28404204
H      -0.83939461      4.24054517     -2.17330038
H       0.12056377      2.03309693     -2.42790024
