14
Oc1ccccc1O
O      -2.25634454      0.57301381      0.24791229
C      -0.91829556      0.32788782      0.10476906
C       0.01584037      1.35627009      0.05390550
C       1.36902555      1.03894972     -0.09369624
C       1.77578275     -0.29630083     -0.18878372
C       0.83169317     -1.32275875     -0.13685181
C      -0.50953044     -1.00064349      0.00975614
O      -1.43495895     -2.00361875      0.06079339
H      -2.38084892      1.53613322      0.29969740
H      -0.28225201      2.39689473      0.12613065
H       2.11140941      1.83243595     -0.13509249
H       2.82969447     -0.53704452     -0.30347929
H       1.13816870     -2.36154753     -0.20983600
H      -2.28938400     -1.53967146      0.16477513
