32
CCCCCCCC(=O)OCC
C      -5.35988403      1.32596153     -0.38658423
C      -3.94264691      0.89027397     -0.72674588
C      -3.61947414     -0.47617924     -0.12121417
C      -2.24429647     -1.01285085     -0.52854292
C      -1.08090991     -0.18122793      0.01614481
C       0.26547611     -0.82396725     -0.32305983
C       1.42944689      0.00572247      0.21596917
C       2.76619475     -0.61754477     -0.11121331
O       2.93416495     -1.65778019     -0.73097126
O       3.76369110      0.16334917      0.39401657
C       5.08321529     -0.33437298      0.14163136
C       6.07866485      0.62969878      0.75698664
H      -6.09409377      0.61451509     -0.77788466
H      -5.57040516      2.30638708     -0.82523048
H      -5.49738905      1.40158010      0.69680533
H      -3.83065472      0.85141679     -1.81637067
H      -3.24526069      1.64748852     -0.35319136
H      -4.37782175     -1.19961405     -0.44586736
H      -3.68398540     -0.42180383      0.97237955
H      -2.18031469     -1.06827330     -1.62208923
H      -2.15505586     -2.04057190     -0.15492699
H      -1.11103901      0.82928060     -0.40625116
H      -1.17665023     -0.08297890      1.10416934
H       0.36042770     -0.93034017     -1.41099232
H       0.30879447     -1.83643939      0.09754762
H       1.40375248      1.00894820     -0.22395250
H       1.34976837      0.09064669      1.30550687
H       5.25275178     -0.40140011     -0.93886304
H       5.19807535     -1.32476216      0.59620785
H       5.96217007      1.63029998      0.32764858
H       5.90849386      0.72384470      1.83461518
H       7.10479377      0.29069336      0.58962093
