16
O=C1NC(=O)c2ccccc21
O       2.21934253     -2.09093818     -0.33464158
C       1.75276849     -0.98248869     -0.16846126
N       2.41896633      0.19406482     -0.01042653
C       1.57509694      1.24947112      0.15411735
O       1.86039666      2.41824066      0.31705701
C       0.21883447      0.70533910      0.09759484
C      -1.00557784      1.33363931      0.20696167
C      -2.14536578      0.52862014      0.10964058
C      -2.03451200     -0.86395638     -0.09162453
C      -0.78183849     -1.47703722     -0.19925722
C       0.32763928     -0.66149756     -0.09995005
H       3.42282666      0.27460089     -0.01475357
H      -1.07610114      2.40535426      0.36161986
H      -3.13271810      0.98059289      0.18999853
H      -2.93783288     -1.46761079     -0.16383339
H      -0.68192513     -2.54639437     -0.35404172
