26
Nc1ccn([C@@H]2CS[C@H](CO)O2)c(=O)n1
N       4.84262287     -0.02619244      0.75958827
C       3.51316815     -0.10936890      0.45105052
C       2.50675972      0.34358135      1.43007706
C       1.23458521      0.20624359      1.06124972
N       0.90395791     -0.33514494     -0.16083259
C      -0.48045768     -0.44588179     -0.60628109
C      -0.89256418      0.71325354     -1.52155465
S      -2.69701687      0.66390726     -1.49072665
C      -2.71095511     -0.36193993      0.01134850
C      -3.63936303      0.23229503      1.07637296
O      -4.99591611      0.28743399      0.64126436
O      -1.37596447     -0.44296487      0.52202215
C       1.88986033     -0.70759652     -1.08002211
O       1.58062223     -1.12185382     -2.19583328
N       3.20812532     -0.59499583     -0.71073669
H       5.09758917     -0.18084903      1.72708687
H       5.41397588     -0.56154247      0.11172507
H       2.81376060      0.76829952      2.37424406
H       0.42702901      0.51870224      1.71578383
H      -0.60108368     -1.40828355     -1.12391082
H      -0.49840412      0.61329496     -2.53618874
H      -0.57150454      1.67718438     -1.11339704
H      -3.05100420     -1.36585451     -0.26649964
H      -3.60144225     -0.38162080      1.98291191
H      -3.31880056      1.23794386      1.37303729
H      -4.99757963      0.78194965     -0.20050744
