19
Cc1ccc([N+](=O)[O-])c([N+](=O)[O-])c1
C       2.93955510     -0.06654607     -0.03306560
C       1.44991601      0.12816004     -0.03209993
C       0.90593851      1.41831497      0.07613397
C      -0.47866019      1.61037000      0.10385586
C      -1.32688069      0.49846910      0.03756492
N      -2.75616291      0.73086303     -0.01258819
O      -3.37630625      0.20115204     -0.94242101
O      -3.23518590      1.48342340      0.84448938
C      -0.79627683     -0.78643026     -0.04176758
N      -1.64822294     -1.95810608     -0.01423777
O      -2.47464530     -2.02675880      0.90343578
O      -1.44616712     -2.82209852     -0.87622977
C       0.59201797     -0.98064653     -0.07648503
H       3.21596600     -0.95738554     -0.60677810
H       3.44424850      0.78768185     -0.49641977
H       3.30217304     -0.17892914      0.99324054
H       1.56352160      2.28564982      0.13268942
H      -0.88072297      2.62026456      0.16896296
H       1.00589436     -1.98744787     -0.12828007
