13
CC(C)C=O
C       1.13386196     -0.69854678      0.40265576
C       0.13193260      0.16068916     -0.35955801
C      -1.22237359     -0.53133271     -0.45522893
C       0.02520733      1.51436901      0.31579462
O      -1.02744459      2.03762944      0.66681675
H       2.11312846     -0.20956470      0.44920380
H       1.26524022     -1.67077329     -0.08348651
H       0.80494309     -0.87212553      1.43338735
H       0.51269860      0.34162789     -1.37148012
H      -1.65172365     -0.70756099      0.53732044
H      -1.93442234      0.08121749     -1.01894888
H      -1.13232317     -1.49660628     -0.96421038
H       0.98127509      2.05097728      0.44773411
