27
CN(C)C(=O)Nc1cccc(C(F)(F)F)c1
C      -3.83583538      1.20155883      0.58111541
N      -2.90857739      0.16433684      0.15883937
C      -3.39500479     -0.70628297     -0.90399741
C      -1.55108105      0.40304794      0.39877590
O      -1.15835838      1.46124562      0.88287216
N      -0.73417999     -0.65864929      0.07814679
C       0.67480158     -0.67415634      0.05318295
C       1.30387544     -1.92235688     -0.02003519
C       2.69616776     -2.01703434     -0.05811720
C       3.47389963     -0.86127854     -0.03358905
C       2.86449300      0.40033147      0.01793520
C       3.69438651      1.65933408      0.05603382
F       3.84737308      2.14603504      1.31803058
F       4.95757139      1.48056188     -0.42709820
F       3.16235348      2.67463653     -0.67958260
C       1.46082848      0.48074667      0.06406296
H      -3.90562246      1.95775123     -0.20673786
H      -3.49581215      1.67863758      1.50517431
H      -4.82001509      0.75858155      0.75928375
H      -2.67811845     -1.47602531     -1.19273264
H      -4.31783982     -1.18975951     -0.57059961
H      -3.60285827     -0.09172605     -1.78576509
H      -1.18736928     -1.55815201      0.11106701
H       0.72004744     -2.83894964     -0.04073221
H       3.17362122     -2.99283875     -0.10507985
H       4.55941577     -0.94635789     -0.05936760
H       1.00183772      1.46676226      0.09891431
