17
S=C=NCc1ccccc1
S       3.85082922      1.81677598      0.18534249
C       3.05250994      0.24829931     -0.18476572
N       2.53922115     -0.78025694     -0.42186806
C       1.45369921     -1.14533193      0.50354028
C       0.14384457     -0.46558873      0.17848795
C      -0.42915482      0.45086272      1.07079133
C      -1.63484631      1.08113861      0.75791699
C      -2.27674507      0.80340758     -0.44767368
C      -1.71392496     -0.10363441     -1.34337215
C      -0.50878364     -0.73487996     -1.03307383
H       1.74133620     -0.95826034      1.54832543
H       1.29853963     -2.22988004      0.43610710
H       0.05801720      0.68364019      2.01500393
H      -2.07325209      1.79132729      1.45440687
H      -3.21459785      1.29607939     -0.69049003
H      -2.21188548     -0.31761888     -2.28549062
H      -0.07480690     -1.43607983     -1.74318828
