30
CC(=O)Nc1ccc2c(c1)Cc1ccccc1-2
C       5.58701312      0.46705011     -0.17226991
C       4.11764838      0.75797842     -0.35299150
O       3.74690614      1.80211612     -0.87696346
N       3.31976762     -0.25099528      0.15577678
C       1.90995660     -0.31141786      0.16263614
C       1.32484168     -1.45239201      0.75575301
C      -0.06559053     -1.61742451      0.81727386
C      -0.86788451     -0.62957135      0.27904124
C      -0.28727091      0.50971362     -0.31385121
C       1.08909114      0.68089671     -0.37898790
C      -1.36494196      1.44298372     -0.82850167
C      -2.62949729      0.69527145     -0.45592568
C      -3.94331823      1.07154613     -0.67986690
C      -4.95362809      0.21235876     -0.24344093
C      -4.64113855     -0.99609921      0.40279274
C      -3.31121509     -1.36859419      0.62503786
C      -2.30838021     -0.51734742      0.19267527
H       6.16299598      1.03509268     -0.90854407
H       5.89342114      0.76215172      0.83466308
H       5.79713857     -0.59549234     -0.32500941
H       3.79615748     -1.03625039      0.58033367
H       1.95081950     -2.23323814      1.18100832
H      -0.49321654     -2.50145127      1.27758537
H       1.48620605      1.57435696     -0.84600722
H      -1.31979903      2.40728195     -0.31409514
H      -1.28992905      1.55977933     -1.91351532
H      -4.18437437      2.00429799     -1.17861889
H      -5.99539519      0.47994340     -0.40467654
H      -5.44505106     -1.64937275      0.73398846
H      -3.08133278     -2.30317238      1.12462530
