10
c1cncnc1
C      -1.14404399      0.10601365     -0.02896732
C      -0.30730576      1.19784481      0.00020764
N       1.03515679      1.10551964      0.03441894
C       1.53104902     -0.14187588      0.03876754
N       0.81493953     -1.27696039      0.01242553
C      -0.52164388     -1.12102962     -0.02119849
H      -2.21965466      0.20568592     -0.05620052
H      -0.70296571      2.20925657     -0.00315252
H       2.61043820     -0.24189786      0.06610021
H      -1.09596953     -2.04255682     -0.04240101
