22
Clc1cccc(-c2ccc(Cl)c(Cl)c2Cl)c1Cl
Cl     -4.48480589      0.44967305      1.12497091
C      -3.12212554      0.01484096      0.15145974
C      -3.38500219     -0.60184243     -1.07505022
C      -2.33537525     -0.97357383     -1.91078997
C      -1.01834728     -0.73038631     -1.52206474
C      -0.72604036     -0.11372451     -0.29019725
C       0.68664580      0.11547920      0.07033456
C       1.29324080      1.32084160     -0.32247773
C       2.62267944      1.59052478     -0.00137997
C       3.37405055      0.65885028      0.71730484
Cl      5.01614382      1.07792238      1.06775943
C       2.79923960     -0.55529545      1.12098349
Cl      3.74615744     -1.71198196      2.00899601
C       1.45503190     -0.82535705      0.79572201
Cl      0.71576545     -2.32871063      1.27620106
C      -1.79842019      0.26261552      0.54981183
Cl     -1.46711089      1.03808504      2.07110578
H      -4.40971421     -0.79652172     -1.38402485
H      -2.54222680     -1.45639523     -2.86345741
H      -0.21009918     -1.03412151     -2.18666314
H       0.72344012      2.06517565     -0.87836382
H       3.06687285      2.53390218     -0.31305294
