25
Oc1ccc(N=Nc2ccccc2)cc1
O       5.51634206      0.43520401      0.64789113
C       4.17942830      0.39886848      0.38515953
C       3.58474423     -0.71689098     -0.19469206
C       2.20963974     -0.70608989     -0.44507949
C       1.42763664      0.40952167     -0.10924940
N       0.04745836      0.45815847     -0.37793471
N      -0.55387485     -0.45603728      0.22847875
C      -1.93617984     -0.39685326     -0.02785808
C      -2.82223718     -0.22753858      1.04144050
C      -4.20193404     -0.19508961      0.82523569
C      -4.70775945     -0.34159747     -0.46562257
C      -3.83677124     -0.52377588     -1.53873170
C      -2.45773687     -0.55592689     -1.31912571
C       2.05132225      1.52459695      0.46132474
C       3.42506599      1.51921382      0.71320793
H       5.91026584     -0.40995752      0.37614192
H       4.16565560     -1.59450780     -0.45890780
H       1.73813608     -1.57136585     -0.90400510
H      -2.43028383     -0.11689694      2.04914760
H      -4.87947513     -0.05703037      1.66377933
H      -5.78136053     -0.31632447     -0.63498764
H      -4.22895444     -0.64225258     -2.54537202
H      -1.78165271     -0.70397801     -2.15701966
H       1.45990986      2.40082887      0.71325947
H       3.90261514      2.38572110      1.16148489
