24
O=C(O)CCCc1ccccc1
O      -2.71088102     -0.08922153     -1.57083144
C      -2.80291315     -0.52755058     -0.43674241
O      -3.95556604     -0.42112595      0.25055435
C      -1.71555667     -1.19964228      0.35147518
C      -1.12814366     -0.28075199      1.42043938
C      -0.40923560      0.95600199      0.86650252
C       0.83389592      0.62771711      0.07808587
C       0.82600716      0.68965157     -1.32180276
C       1.97366804      0.37377163     -2.05059556
C       3.13937351     -0.00592926     -1.38831671
C       3.15848797     -0.07102303      0.00350225
C       2.01140595      0.24338085      0.73399700
H      -4.56424265      0.02725025     -0.37342149
H      -0.94862480     -1.55644097     -0.34383132
H      -2.14052743     -2.09664673      0.81755943
H      -1.93240145      0.06087092      2.08406830
H      -0.43743450     -0.86385040      2.04189198
H      -0.12136439      1.60413128      1.70468600
H      -1.09543746      1.55725843      0.25781508
H      -0.07760662      0.97822975     -1.85610480
H       1.95556844      0.42308222     -3.13617332
H       4.03218327     -0.25112299     -1.95709284
H       4.06737683     -0.36657939      0.52074302
H       2.04196835      0.18853911      1.81975997
