15
ClC(Cl)(Cl)c1ccccc1
Cl      2.88939792     -0.78099934     -1.33647986
C       2.20302590      0.20724339      0.00191622
Cl      2.83291993      1.87566018     -0.20385707
Cl      2.85189192     -0.40919769      1.56332788
C       0.67797632      0.09729631     -0.00370937
C       0.06730940     -1.16931829      0.15077318
C      -1.32192285     -1.31895164      0.15199319
C      -2.14054534     -0.20648578     -0.00120726
C      -1.57063660      1.05282000     -0.15527719
C      -0.17934766      1.20411440     -0.15668364
H       0.67698848     -2.06486911      0.27346566
H      -1.76230915     -2.30581272      0.27281298
H      -3.22157690     -0.31989045     -0.00064652
H      -2.20986172      1.92474954     -0.27531995
H       0.20669036      2.21364119     -0.28110826
