19
Cc1cc(O)c(Cl)c(C)c1Cl
C       2.76229727     -0.52065383      0.13197692
C       1.32726273     -0.07240157      0.06049781
C       1.04657518      1.29849087      0.08271733
C      -0.26856057      1.74011018      0.03284946
O      -0.46637233      3.09470508      0.07226217
C      -1.33330484      0.83394257     -0.04934660
Cl     -2.93968286      1.48770034     -0.07924371
C      -1.08857416     -0.55031262     -0.09483638
C      -2.21186066     -1.55375483     -0.16967728
C       0.25603235     -0.98847986     -0.02058445
Cl      0.60978461     -2.69222830     -0.01277529
H       2.93221830     -1.11556487      1.03506601
H       3.44805044      0.33282087      0.16907900
H       3.02424019     -1.10881856     -0.75339475
H       1.84816831      2.03100380      0.14680171
H      -1.42952097      3.24671942      0.03389582
H      -3.16525052     -1.11275323     -0.47026903
H      -2.35271535     -2.02932009      0.80627712
H      -1.99878713     -2.32120536     -0.92129586
