17
Cc1ccccc1[N+](=O)[O-]
C      -1.95549012     -0.90958779     -0.10912348
C      -0.51194451     -0.49458620     -0.05596914
C       0.48381982     -1.47479478     -0.19463847
C       1.83982358     -1.13506061     -0.14655840
C       2.22987144      0.19069634      0.03639975
C       1.26345012      1.18586931      0.16386207
C      -0.09582137      0.84043284      0.10743794
N      -1.06523907      1.92496574      0.22717080
O      -1.97949797      1.97438159     -0.60673109
O      -0.89279526      2.73709289      1.14709132
H      -2.53113875     -0.42616936      0.68671439
H      -2.38737346     -0.65901073     -1.08280611
H      -2.06209990     -1.99000349      0.03817703
H       0.21102166     -2.51943645     -0.33769113
H       2.59479509     -1.91169418     -0.25102742
H       3.28606646      0.44681020      0.07623682
H       1.57255224      2.22009468      0.30145511
