44
Cc1ccc(-c2nc3ccc(C)cn3c2CC(=O)N(C)C)cc1
C       5.75145998      1.86842476     -0.25164655
C       4.46966917      1.08966688     -0.23417244
C       4.34498434     -0.08581069     -0.98420047
C       3.16487844     -0.83318715     -0.93814555
C       2.09254913     -0.41575332     -0.14356402
C       0.87484836     -1.20208661     -0.11250538
N       0.88577203     -2.56372949      0.06267603
C      -0.37852362     -2.92316354      0.06405007
C      -0.98313319     -4.19984111      0.23141201
C      -2.32417634     -4.31784486      0.19762525
C      -3.19138191     -3.15968218     -0.00517704
C      -4.67067864     -3.38277951     -0.00835014
C      -2.61610424     -1.95253703     -0.16980629
N      -1.22400161     -1.83559814     -0.13897766
C      -0.41258998     -0.72747751     -0.30813531
C      -0.92430513      0.63339241     -0.65659790
C      -1.45741021      1.38389176      0.56405974
O      -1.66531028      0.81600894      1.63774128
N      -1.72880256      2.74377775      0.39330730
C      -1.35766386      3.50248575     -0.79151868
C      -2.08192592      3.52574563      1.56785120
C       2.22816695      0.74096865      0.63281427
C       3.40880559      1.48810936      0.58781142
H       6.24635482      1.78386547     -1.22485889
H       6.42749584      1.49418724      0.52323092
H       5.56395484      2.93269997     -0.07450102
H       5.16778375     -0.43412770     -1.60421127
H       3.08409242     -1.74925466     -1.51977477
H      -0.33967169     -5.05753327      0.38833171
H      -2.78691612     -5.29171531      0.32974463
H      -4.95412431     -4.07199025     -0.81084974
H      -5.22114974     -2.44852328     -0.16272088
H      -4.99814317     -3.80756994      0.94647668
H      -3.18908200     -1.04616502     -0.31279157
H      -0.10998332      1.20809462     -1.10982187
H      -1.72859542      0.55816441     -1.39699066
H      -1.44952483      2.89869660     -1.69661383
H      -0.32193034      3.83633201     -0.68113828
H      -2.01646036      4.36993759     -0.89289499
H      -2.85102351      4.25475408      1.29626763
H      -1.18759581      4.04869278      1.91975103
H      -2.46732132      2.89976677      2.37686008
H       1.42805644      1.05305784      1.30006527
H       3.49865733      2.37564931      1.20988867
