24
CC(C)(C)c1ccccc1
C      -1.83703932      1.32345663      0.20740435
C      -1.11678893     -0.04389744      0.19431228
C      -1.36130784     -0.70136007      1.56980124
C      -1.78385647     -0.90025162     -0.90372885
C       0.39567426      0.05209344     -0.07177924
C       1.05356647      1.27575267     -0.28256482
C       2.43119159      1.32886953     -0.52217806
C       3.18328135      0.15960360     -0.55663630
C       2.55820408     -1.06469399     -0.35140488
C       1.18208554     -1.11672330     -0.11213590
H      -2.90987883      1.20304296      0.40035205
H      -1.44117626      1.98062402      0.99047086
H      -1.73923812      1.84033013     -0.75438974
H      -0.87364813     -0.13317395      2.37082708
H      -2.43211592     -0.75025580      1.79980206
H      -0.97765933     -1.72655880      1.61344534
H      -2.86889889     -0.95584703     -0.75704751
H      -1.60300588     -0.47647839     -1.89871558
H      -1.40903444     -1.92960399     -0.91173755
H       0.51496841      2.21899897     -0.26640354
H       2.91466900      2.28923864     -0.68199645
H       4.25263214      0.20304139     -0.74280869
H       3.13871460     -1.98304369     -0.37672935
H       0.72866092     -2.09316392      0.04384120
