24
N#Cc1c[nH]cc1-c1cccc2c1OC(F)(F)O2
N       0.81307987     -1.53901386      3.18238282
C       1.29031350     -1.25209206      2.16364027
C       1.89337506     -0.89201946      0.91644693
C       3.15953840     -1.27328975      0.51887018
N       3.40028249     -0.72539239     -0.71404111
C       2.30958825      0.00761768     -1.10725624
C       1.34609445     -0.08004093     -0.11829749
C       0.05255770      0.57074313     -0.22044803
C      -0.04048286      1.94368373     -0.50166418
C      -1.29214093      2.58005669     -0.59489907
C      -2.47052614      1.85528921     -0.41222943
C      -2.35892497      0.50772297     -0.14114776
C      -1.13543511     -0.12275893     -0.04525490
O      -1.27007954     -1.45478004      0.21365140
C      -2.69661663     -1.56673441      0.26268427
F      -3.08946775     -2.45453868     -0.68458000
F      -3.05417536     -2.07066898      1.46831224
O      -3.40522699     -0.33949309      0.05240394
H       3.90752223     -1.88461882      1.00750030
H       4.25071050     -0.84281758     -1.25177327
H       2.30935822      0.51533838     -2.06355547
H       0.86145176      2.53729499     -0.64026668
H      -1.33954015      3.64584605     -0.80845892
H      -3.44125600      2.33466612     -0.48201982
