17
NC(=O)C[C@H](N)C(=O)O
N      -2.01835565     -1.02533113      0.98602997
C      -1.83086261      0.16551370      0.35467190
O      -2.51310869      1.14714938      0.62486189
C      -0.72742218      0.20034422     -0.67643783
C       0.61323847      0.47335333     -0.00241619
N       1.58674819      1.10337741     -0.95308421
C       1.24170178     -0.84364623      0.49168454
O       0.63567004     -1.75750654      1.03107639
O       2.57937246     -0.86783435      0.26088719
H      -1.24733483     -1.69068705      1.06254259
H      -2.67332253     -1.02417438      1.75809077
H      -0.98440074      0.99899220     -1.38381513
H      -0.72356511     -0.73850229     -1.24316119
H       0.51716748      1.13173523      0.86837731
H       1.28906699      2.07469092     -1.09742511
H       1.46696191      0.67085141     -1.87631246
H       2.78844503     -0.01832583     -0.20557041
