22
CCc1cc(C)cc(O)c1
C       2.69148715     -0.50700573      1.26302869
C       2.25196308      0.09387028     -0.06330887
C       0.75578803      0.26595708     -0.13221898
C      -0.05567958     -0.77223687     -0.61600055
C      -1.44900536     -0.62886176     -0.67714430
C      -2.30882547     -1.75572761     -1.16694534
C      -2.03135540      0.55805048     -0.21983957
C      -1.22929991      1.58457574      0.26592573
O      -1.84724783      2.72222824      0.69652694
C       0.15544466      1.45079503      0.31403460
H       2.39951739      0.13069419      2.10431919
H       3.77998551     -0.62009449      1.28498939
H       2.24450227     -1.49463667      1.41944034
H       2.74215188      1.06382656     -0.21144709
H       2.58839439     -0.54451089     -0.88933908
H       0.40268477     -1.70206518     -0.94844202
H      -3.22864905     -1.37579002     -1.62389408
H      -2.57340833     -2.41392203     -0.33370851
H      -1.78619621     -2.34227047     -1.92985131
H      -3.11015494      0.68857528     -0.23823406
H      -1.16723662      3.34379978      1.00274285
H       0.77513957      2.25474904      0.69936602
