20
C1=Cc2cccc3cccc1c23
C      -1.97559828      1.40008181      0.31830975
C      -0.93677139      2.24717152      0.19293265
C       0.26688699      1.44915380      0.00046185
C       1.59805763      1.77293069     -0.18040044
C       2.52552761      0.72640295     -0.34015376
C       2.11734393     -0.62558061     -0.31792839
C       0.75888871     -0.95038237     -0.13321991
C       0.15769955     -2.22353149     -0.08144182
C      -1.23622352     -2.34103946      0.11383121
C      -2.05248660     -1.20383019      0.26017112
C      -1.45805403      0.04258663      0.20864377
C      -0.10554641      0.13218051      0.01852926
H      -3.01169243      1.65143316      0.47242782
H      -0.96096814      3.32365267      0.22494619
H       1.92511219      2.80698532     -0.19951171
H       3.57782866      0.96263727     -0.48365128
H       2.85616529     -1.41242392     -0.44396032
H       0.76264218     -3.11954526     -0.19129798
H      -1.68705151     -3.33051194      0.15174077
H      -3.12176043     -1.30837106      0.40957124
