26
CNC(=O)Oc1cc(C)cc(C)c1
C       4.77561548     -0.45309919     -0.36953556
N       3.58773278     -0.48637978      0.43843272
C       2.35404102     -0.19126433     -0.07482329
O       2.15660294      0.21971116     -1.20978327
O       1.39177489     -0.44775771      0.88865705
C       0.07947831     -0.16871229      0.49191041
C      -0.79063015     -1.24083673      0.30532694
C      -2.12394342     -0.99605328     -0.03855914
C      -3.06264577     -2.13623639     -0.30004104
C      -2.55735769      0.32996695     -0.19493810
C      -1.68646628      1.40841347      0.02678862
C      -2.15932783      2.81833476     -0.16856745
C      -0.35585341      1.15028333      0.37138566
H       4.74259647      0.38997222     -1.06478816
H       4.83958107     -1.38702433     -0.93403110
H       5.64207895     -0.36021964      0.28913204
H       3.59712627     -0.93931680      1.34138383
H      -0.42646597     -2.25754730      0.42006266
H      -4.08987736     -1.86444361     -0.03525955
H      -3.03052497     -2.41202323     -1.35853528
H      -2.79324969     -3.01056504      0.30179021
H      -3.58664017      0.52564108     -0.49128587
H      -2.01468577      3.12044108     -1.21035128
H      -3.22074305      2.91245862      0.08385563
H      -1.60946102      3.50857117      0.47985338
H       0.34124438      1.96768582      0.53208725
