20
CCC(CC)C(=O)O
C       2.40574069     -0.62573128     -0.15223706
C       0.91174165     -0.90910972     -0.04624446
C       0.05321593      0.28783825     -0.48703661
C      -1.41989470     -0.09160514     -0.71755825
C      -2.11678498     -0.71622474      0.48485527
C       0.14110596      1.43260764      0.50206474
O       0.41830680      1.36599465      1.68744829
O      -0.14500624      2.62210859     -0.06398316
H       2.68399033     -0.36954924     -1.17950088
H       2.70575433      0.19876574      0.50138593
H       2.97779259     -1.51176768      0.14115176
H       0.68287024     -1.77558845     -0.67846530
H       0.68358508     -1.19458487      0.98739290
H       0.45878172      0.65530471     -1.43967716
H      -1.98420700      0.79970471     -1.01899736
H      -1.47895728     -0.79490583     -1.55739889
H      -2.09622166     -0.04935090      1.35183191
H      -1.65601826     -1.66748832      0.76667167
H      -3.16578621     -0.91730861      0.24366559
H      -0.06000899      3.26089049      0.67463107
