15
O=[N+]([O-])c1ccc(O)cc1
O      -3.08407049      1.15489579      0.58583551
N      -2.59908702      0.12824098      0.08868184
O      -3.26361534     -0.81768856     -0.35774487
C      -1.13558833      0.02694199      0.02480682
C      -0.34438922      1.07522232      0.51897630
C       1.04827743      0.97716664      0.45739210
C       1.63143564     -0.16116022     -0.09433076
O       2.98503349     -0.29685175     -0.17354675
C       0.85027232     -1.20365799     -0.58582982
C      -0.54181024     -1.11546371     -0.52898188
H      -0.79467840      1.96673260      0.95099969
H       1.65639120      1.79117407      0.84119203
H       3.40660499      0.49424824      0.20122661
H       1.32632228     -2.08320743     -1.01239441
H      -1.14109832     -1.93659299     -0.91628240
