13
O=C1CCCN1
O       2.18579334     -1.33982371      0.04202605
C       1.16523918     -0.67591781      0.01401039
C      -0.24852990     -1.20090545      0.01723238
C      -1.07144170      0.03839746     -0.32476752
C      -0.22479033      1.18575528      0.18935567
N       1.11143565      0.70271748      0.02659187
H      -0.48533894     -1.57524977      1.01766276
H      -0.37706234     -1.99064438     -0.72652390
H      -2.07397492      0.01901741      0.11150796
H      -1.17936611      0.11423624     -1.41412247
H      -0.36435106      2.10949760     -0.37720238
H      -0.39548745      1.37280960      1.25425311
H       1.95787456      1.24011005      0.16997609
