32
Cc1cc(C2CC2)nc(Nc2ccccc2)n1
C       0.95814342     -3.06497561     -1.26540343
C       1.07697450     -1.71394516     -0.62888700
C       2.30515243     -1.10130667     -0.51594480
C       2.33620445      0.14516201      0.07918384
C       3.64161882      0.88521223      0.25285335
C       4.42399818      1.34225535     -0.95777407
C       3.72767327      2.35339006     -0.09802302
N       1.20367444      0.72243973      0.53655809
C       0.04081647      0.06643830      0.39194364
N      -1.07083823      0.74034218      0.88857655
C      -2.43783719      0.45449287      0.95359150
C      -3.29285600      1.39888785      1.54697138
C      -4.67008606      1.17742538      1.64554722
C      -5.22071439      0.00077865      1.14981932
C      -4.39303541     -0.94837981      0.55836259
C      -3.01507937     -0.72074774      0.46272663
N      -0.05372330     -1.14007592     -0.18091254
H      -0.08356943     -3.40189670     -1.27402641
H       1.54872243     -3.79906159     -0.70848213
H       1.31256153     -3.02836302     -2.30023921
H       3.21052725     -1.57135315     -0.87819930
H       4.22533887      0.57688355      1.11729248
H       5.50576988      1.29448139     -0.90912049
H       4.01683036      1.16344952     -1.94672541
H       2.84479863      2.84147125     -0.49673167
H       4.33118333      2.98849327      0.53984836
H      -0.76636032      1.62173338      1.27361574
H      -2.88870533      2.32743321      1.94292927
H      -5.30811494      1.92471773      2.10927020
H      -6.28990409     -0.17709432      1.22344407
H      -4.81355746     -1.87125430      0.16788164
H      -2.40560672     -1.48703393     -0.00602304
