23
O=C(O)CCCCCC(=O)O
O       3.12341220      0.91756371     -0.86586244
C       3.01152748      0.68711409      0.32555542
O       3.72565728      1.38790709      1.22842849
C       2.15167524     -0.36029298      0.98223904
C       1.13800832     -0.98412619      0.02319999
C      -0.01134982     -0.02915747     -0.31619549
C      -1.01378872     -0.68638881     -1.27019235
C      -2.14728693      0.25583922     -1.66308849
C      -3.07316444      0.54174968     -0.51531133
O      -3.13707896      1.58105128      0.11916527
O      -3.87146462     -0.49938855     -0.21447649
H       4.24132769      2.01965727      0.68456788
H       1.63150291      0.08821908      1.83575078
H       2.82170585     -1.14341229      1.35434686
H       1.63798595     -1.30687547     -0.89805997
H       0.72300289     -1.88391430      0.49384015
H      -0.51770149      0.26905036      0.60936468
H       0.38178765      0.88417670     -0.77715095
H      -1.41995454     -1.59412227     -0.80779940
H      -0.48900229     -0.99769412     -2.18160088
H      -1.75475139      1.20724418     -2.03957233
H      -2.74066598     -0.17887904     -2.47592199
H      -4.41138427     -0.17532114      0.53663624
