17
CCN(O)CC
C       2.19984247     -0.42443079      0.34348678
C       1.14601082      0.58933697      0.77201066
N      -0.01186905      0.62207256     -0.13524277
O      -0.82006591      1.73328694      0.35522403
C      -0.86241839     -0.57049510      0.00916146
C      -2.06665943     -0.51196423     -0.92543093
H       3.09187898     -0.32173001      0.97034941
H       2.50204669     -0.26430421     -0.69685276
H       1.84318874     -1.45347143      0.44641549
H       0.83812210      0.39250791      1.80663921
H       1.62125289      1.57843278      0.76368723
H      -0.84845926      2.30621451     -0.43448092
H      -0.29268914     -1.46892094     -0.25096315
H      -1.20956791     -0.68760034      1.04334768
H      -1.75081062     -0.39940023     -1.96805227
H      -2.73454396      0.31879306     -0.67605441
H      -2.64525900     -1.43832745     -0.84797726
