17
O=C(O)C(=O)c1ccccc1
O      -2.46837900      1.71843743     -0.53458669
C      -2.65397064      0.53177033     -0.37154634
O      -3.86532718     -0.06682330     -0.36735315
C      -1.56683822     -0.52185754     -0.15530337
O      -1.96610818     -1.68779287     -0.11009032
C      -0.12835931     -0.18656290     -0.00735180
C       0.34037161      1.11275687      0.21370742
C       1.71155778      1.35185413      0.35108446
C       2.62064985      0.29837083      0.27459089
C       2.16327198     -0.99974426      0.06380652
C       0.79508026     -1.24233654     -0.07415086
H      -3.73301796     -1.03892813     -0.25096116
H      -0.32983220      1.96393532      0.29389611
H       2.06940598      2.36523690      0.52057082
H       3.68567987      0.48992853      0.38238584
H       2.87028004     -1.82402050      0.00756608
H       0.45553532     -2.26422430     -0.23626446
