26
CCCCCCCC(=O)O
C      -4.15685980      1.18279240     -0.31419685
C      -3.13113889      0.06750443     -0.43882567
C      -1.73666236      0.54080881     -0.02943288
C      -0.70785771     -0.58397058     -0.15631938
C       0.68815882     -0.11027501      0.25340261
C       1.71606244     -1.23920101      0.12811175
C       3.11715338     -0.80377243      0.55595195
C       3.77511243      0.11636679     -0.43793164
O       3.42871297      0.34545805     -1.58350379
O       4.88351037      0.69192086      0.06904400
H      -4.22230563      1.54209788      0.71776852
H      -5.14656622      0.82251421     -0.61184137
H      -3.89595913      2.02941029     -0.95724113
H      -3.43827428     -0.77545727      0.19108395
H      -3.11371775     -0.29081841     -1.47468555
H      -1.76048730      0.90195972      1.00597320
H      -1.43606586      1.38665293     -0.65972227
H      -1.00876291     -1.42965014      0.47396741
H      -0.68381156     -0.94457966     -1.19188246
H       0.98239441      0.73842210     -0.37466609
H       0.66332848      0.24889102      1.28946609
H       1.40330897     -2.07533629      0.76563102
H       1.73387485     -1.61276568     -0.90290785
H       3.07107911     -0.30375382      1.52969934
H       3.75532823     -1.68960302      0.64932603
H       5.22044496      1.24438383     -0.66724677
