42
COc1nc(C)nc(NC(=O)NS(=O)(=O)c2ccccc2OCCCl)n1
C       6.13966961     -0.44542423     -1.83300975
O       5.34544503      0.64143298     -1.37583373
C       4.18104631      0.24533751     -0.75448618
N       3.88623467     -1.04850002     -0.65992291
C       2.74046474     -1.31379151     -0.04009997
C       2.33283333     -2.74941830      0.08171927
N       1.91047707     -0.38773079      0.44435346
C       2.31468655      0.87439852      0.29460309
N       1.53251162      1.91494219      0.76279303
C       0.33576116      1.86925760      1.40632237
O      -0.23957808      2.91412481      1.68406260
N      -0.19116154      0.62408764      1.70998690
S      -1.70699189      0.33022885      2.29948057
O      -1.92252182     -1.09934775      2.18035805
O      -1.83618395      0.97937538      3.58652719
C      -2.78584203      1.12066215      1.14057500
C      -3.65008979      2.12737962      1.58611995
C      -4.51708393      2.74412657      0.68379959
C      -4.51741504      2.36071373     -0.65740351
C      -3.65388671      1.35691076     -1.10103470
C      -2.79701571      0.72136288     -0.19828095
O      -1.91191945     -0.22298331     -0.64429879
C      -2.58475191     -1.40209128     -1.11716528
C      -1.57589348     -2.54107358     -1.11881136
Cl     -2.27691089     -4.02011159     -1.80568606
N       3.43722128      1.24590733     -0.29969463
H       5.61207473     -1.03093161     -2.59404633
H       6.46140159     -1.08123769     -1.00074922
H       7.03825686     -0.02937295     -2.29893571
H       3.19907445     -3.37210443      0.32493268
H       1.58598693     -2.87595312      0.87165513
H       1.90391469     -3.09228769     -0.86434259
H       1.89456811      2.83775021      0.58071360
H       0.28314132     -0.20116849      1.35096384
H      -3.64728456      2.44226889      2.62789304
H      -5.18499362      3.53149504      1.02586041
H      -5.18388771      2.85401480     -1.36115530
H      -3.64483479      1.09106523     -2.15443013
H      -3.43348839     -1.65749850     -0.46895016
H      -2.94892866     -1.22159150     -2.13544734
H      -1.23165053     -2.75921073     -0.10298042
H      -0.69245559     -2.27501361     -1.70843668
