22
CCN(CCCl)CCCl
C      -1.02525436      2.22723798     -0.77174290
C       0.00013951      1.47416445      0.07105658
N      -0.00437412      0.02446689     -0.21735899
C       1.27688261     -0.59201671      0.20899099
C       2.41981225     -0.32873837     -0.78031348
Cl      3.90533415     -1.16009105     -0.24702335
C      -1.14618071     -0.63570730      0.46493742
C      -1.52358548     -1.97617588     -0.17874949
Cl     -2.93286301     -2.68900118      0.65079333
H      -0.86947690      2.03861820     -1.83934551
H      -0.92296307      3.30485191     -0.60522472
H      -2.05385296      1.95400645     -0.52097473
H       0.97431588      1.91161765     -0.17260958
H      -0.16769790      1.66685687      1.13823374
H       1.55062691     -0.24906211      1.21580661
H       1.16186651     -1.68004275      0.27639069
H       2.17015289     -0.70817704     -1.77606970
H       2.66245249      0.73325146     -0.86328101
H      -2.03639404      0.00123050      0.40968133
H      -0.92963246     -0.76639068      1.53371334
H      -0.71527142     -2.70880199     -0.11847329
H      -1.79403678     -1.84209728     -1.23077492
