26
C=C(C)C(=O)OCCN(C)C
C       3.75868451     -0.48216489     -1.57823635
C       3.07436064     -0.01219188     -0.52141160
C       3.71250256      0.23517226      0.80988943
C       1.62114715      0.26957220     -0.70016371
O       1.00846646      0.10309041     -1.74408679
O       1.09082523      0.72529878      0.46210800
C      -0.31154416      1.04895700      0.41712008
C      -1.16639647     -0.21992471      0.56982193
N      -2.60748767      0.04663313      0.74185662
C      -3.20449036      0.58205890     -0.48500994
C      -3.29897737     -1.18794806      1.12466339
H       3.27874602     -0.65514586     -2.53855917
H       4.81838242     -0.70644390     -1.51374059
H       3.62163803      1.28929930      1.09191786
H       3.24114713     -0.37900869      1.58423922
H       4.77994257     -0.01082188      0.80120203
H      -0.53955807      1.60198396     -0.50105263
H      -0.50041935      1.72779579      1.25628803
H      -0.99116611     -0.89923633     -0.27438224
H      -0.78929834     -0.75033597      1.45498348
H      -3.06625918     -0.08945771     -1.34013810
H      -2.78100322      1.55912090     -0.73732042
H      -4.27977509      0.74540947     -0.34841943
H      -3.20392849     -1.96955815      0.36203892
H      -4.36480853     -0.99638761      1.29250446
H      -2.90073029     -1.57576645      2.06896528
