22
CC(=O)Nc1ccc(S(=O)(=O)Cl)cc1
C       4.17049830      0.59169864     -0.00911769
C       2.71354631      0.85286051     -0.30088248
O       2.37898088      1.74302340     -1.07390428
N       1.87916029     -0.02683645      0.36578713
C       0.47036474     -0.06908302      0.32698562
C      -0.15894199     -1.07761333      1.07154260
C      -1.55227165     -1.19223042      1.08882059
C      -2.32397381     -0.29455757      0.34929195
S      -4.08993640     -0.41315617      0.38187351
O      -4.65678269      0.89939684      0.15600322
O      -4.48617518     -1.25977956      1.48799041
Cl     -4.45910943     -1.49424080     -1.31160634
C      -1.71399460      0.72476928     -0.38368146
C      -0.31863490      0.83031491     -0.39583505
H       4.53717566     -0.19500371     -0.67356075
H       4.31383678      0.29028326      1.03253925
H       4.74416437      1.50758901     -0.17809835
H       2.32910910     -0.73005760      0.93843535
H       0.42607780     -1.78795766      1.65138526
H      -2.01845553     -1.97873904      1.67929443
H      -2.30621449      1.44429360     -0.94654376
H       0.12157646      1.63502589     -0.97799382
