54
C[C@H]1CC(=O)C[C@@H]2CC[C@H]3[C@@H]4CC[C@H](O)[C@@]4(C)CC[C@@H]3[C@@]12C
C       2.63242655      1.49809150     -1.92154780
C       2.66439981      0.01070660     -1.52538601
C       4.12757185     -0.40685961     -1.28813156
C       4.64669494      0.09806037      0.03814336
O       5.76353947      0.60555431      0.13751536
C       3.78893075     -0.15914501      1.25409784
C       2.33698239      0.25674402      0.99571856
C       1.47702663     -0.01145621      2.23835020
C       0.05518908      0.50850614      2.05417867
C      -0.61406564     -0.06838489      0.80092508
C      -1.99475677      0.55559583      0.56683195
C      -3.04054445      0.49158298      1.67693463
C      -4.37314365      0.74309322      0.94778686
C      -4.04953242      0.72780599     -0.55916048
O      -5.08907820      0.13552761     -1.31351758
C      -2.72311943     -0.05131423     -0.64825467
C      -2.98728419     -1.57572709     -0.54919775
C      -1.88810576      0.24279718     -1.90131761
C      -0.45345520     -0.29939474     -1.76353388
C       0.26349617      0.17847444     -0.47119600
C       1.73417500     -0.37301742     -0.30703302
C       1.70077286     -1.92662136     -0.20915109
H       1.63676028      1.81292737     -2.24443338
H       3.30352660      1.68077803     -2.76880135
H       2.95160927      2.15380816     -1.10675878
H       2.32266764     -0.54646748     -2.40804354
H       4.23656147     -1.49621646     -1.29896609
H       4.77093532     -0.02013332     -2.08720986
H       3.87625712     -1.21604366      1.52463338
H       4.19593160      0.42535384      2.08791622
H       2.34489427      1.34789695      0.86177761
H       1.92103193      0.48581372      3.10970603
H       1.45558147     -1.08198382      2.47283803
H       0.07828164      1.60419306      1.99367921
H      -0.53119765      0.25516304      2.94511107
H      -0.73829278     -1.14343588      0.96455222
H      -1.82763621      1.62840791      0.37136045
H      -2.86312192      1.24408769      2.45199464
H      -3.05057272     -0.49007960      2.16345858
H      -5.11472261     -0.01680676      1.21866832
H      -4.79466015      1.71418778      1.23069937
H      -3.91708398      1.75702925     -0.91613174
H      -5.90276317      0.63675426     -1.13366617
H      -2.06889513     -2.15926487     -0.44502344
H      -3.49286481     -1.93843453     -1.45180193
H      -3.62530299     -1.83522956      0.30150911
H      -2.36139294     -0.18839127     -2.79160825
H      -1.83563943      1.32571012     -2.07356556
H      -0.48259441     -1.39249456     -1.80111480
H       0.10847797      0.01962600     -2.64756384
H       0.34245397      1.27183887     -0.55898815
H       1.01312594     -2.28822566      0.55884191
H       2.67759992     -2.35432958      0.03140515
H       1.39292471     -2.37665866     -1.15879690
