17
N[C@@H](CCO)C(=O)O
N      -1.59266421     -1.26604013     -0.05579342
C      -0.68588438     -0.08122859      0.06062351
C       0.69842685     -0.49960438      0.56515615
C       1.44410815      0.62343914      1.28860840
O       1.31301835      1.88518104      0.66247675
C      -0.58614534      0.55512821     -1.34447541
O       0.32716633      1.26122656     -1.74487898
O      -1.65599938      0.21148928     -2.10961601
H      -1.80450494     -1.59042777      0.89250982
H      -1.06150153     -2.03835614     -0.47320595
H      -1.16481524      0.64410378      0.72692749
H       0.62664166     -1.34784382      1.25759610
H       1.30990224     -0.84027727     -0.28059461
H       1.05249772      0.72653027      2.30606880
H       2.50825345      0.38002360      1.37118923
H       1.46254451      1.78814651     -0.30214062
H      -2.19104425     -0.41149032     -1.55587673
