23
CNC(=O)Oc1cccc(C)c1
C       4.33392573     -0.86928781      0.15871632
N       3.24442667     -0.10107386     -0.37784894
C       1.97555089     -0.19379304      0.12588827
O       1.62844798     -0.99107656      0.98603011
O       1.17715063      0.76062927     -0.48411996
C      -0.15921126      0.76070943     -0.06974582
C      -0.61971348      1.85860517      0.65211764
C      -1.95815530      1.90596007      1.03571516
C      -2.82569463      0.86884009      0.68050588
C      -2.36737652     -0.21989628     -0.07557712
C      -3.29424990     -1.34558018     -0.42637260
C      -1.01899416     -0.27118049     -0.44807523
H       4.70496700     -0.36812099      1.05655958
H       5.12723542     -0.91863234     -0.59058608
H       4.00074793     -1.87794728      0.41724021
H       3.42521038      0.68463836     -0.98657043
H       0.05602393      2.66415433      0.92081448
H      -2.32849399      2.74834705      1.61386408
H      -3.86559520      0.91580342      0.99694444
H      -4.32063214     -0.98331035     -0.54671915
H      -3.27673650     -2.10412896      0.36216981
H      -3.00178976     -1.81180472     -1.37311477
H      -0.63704372     -1.11185431     -1.02043916
