16
C=Cc1ccccc1
C       2.68622954      0.90203501      0.27465786
C       1.87456720     -0.15185064      0.43062189
C       0.43447642     -0.14763323      0.13886428
C      -0.41356881     -0.95559494      0.90815248
C      -1.78547506     -1.00268347      0.64637532
C      -2.32281875     -0.25047723     -0.39558481
C      -1.48876459      0.54467619     -1.17836988
C      -0.11674901      0.59205014     -0.91576508
H       3.74039351      0.82309263      0.52161653
H       2.33248710      1.86438731     -0.07988187
H       2.28251210     -1.08288230      0.81775544
H      -0.01396975     -1.55038398      1.72636498
H      -2.43256195     -1.62768500      1.25608938
H      -3.38943520     -0.28746978     -0.60049980
H      -1.90344529      1.12545525     -1.99806543
H       0.51612254      1.20496405     -1.55233129
