9
O=S([O-])CO.[Na+]
O       2.20416191     -0.12785263      0.35614521
S       1.05670205      0.67311119     -0.21240394
O       0.43380297      1.67209160      0.73911225
C      -0.29101616     -0.60359697     -0.25008400
O      -1.58240895     -0.00611503     -0.36136349
Na      0.00000000      0.00000000      0.00000000
H      -0.25154693     -1.16644049      0.68657391
H      -0.11500234     -1.27051818     -1.09709182
H      -1.45469256      0.82932051      0.13911188
