26
Cc1cc(=O)n(-c2ccccc2)n1C
C       3.60560481     -0.93651696     -0.11909626
C       2.39169385     -0.07927021     -0.24889218
C       2.35682286      1.12386025     -0.83637757
C       0.95817121      1.59149960     -0.73042595
O       0.58966713      2.65144222     -1.20959172
N       0.24810011      0.57757170     -0.07507979
C      -1.15012059      0.35522273     -0.17882384
C      -2.03134158      1.42244910     -0.40054644
C      -3.41078060      1.21073412     -0.49898458
C      -3.93100021     -0.07472942     -0.38256922
C      -3.07216850     -1.14895500     -0.17185690
C      -1.69358414     -0.93446714     -0.07229352
N       1.15231945     -0.47479354      0.26894606
C       1.09332814     -0.86372464      1.68865227
H       3.41117806     -1.93576298     -0.52176228
H       3.90229044     -1.03516589      0.92967471
H       4.45455234     -0.51523945     -0.66792987
H       3.13969637      1.68143517     -1.31446776
H      -1.66504828      2.44258825     -0.48447887
H      -4.07464802      2.05483611     -0.66792974
H      -5.00222203     -0.23877675     -0.46346462
H      -3.47054817     -2.15722279     -0.09519289
H      -1.04785654     -1.79873394      0.05476460
H       0.07377579     -1.09174879      2.01157142
H       1.69280903     -1.76460118      1.85732818
H       1.47930908     -0.06193055      2.32882676
