20
CCOC(=O)C(C)C
C       3.22561027     -0.79192720     -0.15378186
C       2.20487951      0.25725363      0.24147994
O       0.90738428     -0.21567147     -0.13939738
C      -0.11110965      0.63868016      0.16571556
O       0.02558765      1.72278498      0.71540886
C      -1.43548340      0.03861892     -0.26977204
C      -2.50391186      1.12119515     -0.39762093
C      -1.86464069     -1.03684128      0.72119503
H       3.00916891     -1.74531319      0.33950266
H       3.19072185     -0.97652954     -1.23258112
H       4.23632509     -0.47493100      0.11794363
H       2.42200481      1.19827823     -0.27619086
H       2.23761965      0.41505876      1.32532687
H      -1.29249570     -0.40653326     -1.26224178
H      -2.70576231      1.60144809      0.56633924
H      -3.44320452      0.69862093     -0.76933600
H      -2.18444862      1.90263715     -1.09577043
H      -1.11605681     -1.83395443      0.78485641
H      -1.98797000     -0.62239448      1.72800985
H      -2.81421845     -1.49048016      0.41901934
