54
O=C1CCc2cc(OCCCCc3nnnn3C3CCCCC3)ccc2N1
O       8.53884747      0.01312472      1.86923458
C       7.31659041      0.06238310      1.75209539
C       6.38044308     -0.33868028      2.86909069
C       5.08227689     -0.92802544      2.34412106
C       4.50141804     -0.07828230      1.24982175
C       3.12407226     -0.05763040      0.99811821
C       2.60233683      0.66463323     -0.08086744
O       1.24240445      0.59527798     -0.19771706
C       0.59977821      1.31861619     -1.24648980
C       0.55566008      0.52045250     -2.55060452
C       0.09772318     -0.93925399     -2.40508018
C      -1.21732629     -1.15232317     -1.64974099
C      -2.39541797     -0.52604565     -2.30734880
N      -2.50253300     -0.13030739     -3.56043441
N      -3.75775201      0.40380446     -3.69469555
N      -4.42595157      0.33656146     -2.55397391
N      -3.59199392     -0.26473097     -1.68799620
C      -3.99724467     -0.51657070     -0.31603779
C      -5.34256397     -1.25679775     -0.22858500
C      -5.74435448     -1.50953840      1.22302747
C      -5.76546568     -0.21673942      2.03429232
C      -4.43402222      0.52397376      1.94993250
C      -4.02123547      0.78260761      0.50285147
C       3.47407676      1.35421163     -0.92445680
C       4.85390931      1.32819594     -0.68872611
C       5.35968813      0.62246948      0.40018093
N       6.73753586      0.59220600      0.62977707
H       6.88333668     -1.06950518      3.51150244
H       6.18215923      0.55878617      3.46716253
H       4.37203300     -1.02583245      3.17211476
H       5.26279129     -1.93060137      1.93945251
H       2.44499676     -0.61541099      1.63953629
H      -0.42660233      1.50208867     -0.90704305
H       1.03188815      2.31606695     -1.39070540
H      -0.08382230      1.04986987     -3.26587921
H       1.55671334      0.50103393     -2.99793880
H       0.88319234     -1.50389164     -1.88656247
H       0.02271014     -1.37883284     -3.40821993
H      -1.40204317     -2.23120908     -1.57408798
H      -1.11262240     -0.78238241     -0.62418641
H      -3.23635833     -1.17850216      0.11703606
H      -6.13394196     -0.67503852     -0.72008182
H      -5.27996409     -2.21345156     -0.76326039
H      -6.73310029     -1.98102245      1.25472671
H      -5.03890761     -2.21453137      1.67897533
H      -5.99497862     -0.44273096      3.08169485
H      -6.56831157      0.43265968      1.66419891
H      -4.50683567      1.47556260      2.48763324
H      -3.65672555     -0.06594833      2.44976950
H      -4.71885635      1.50082732      0.05231816
H      -3.03156001      1.25733645      0.48550564
H       3.12033465      1.91735360     -1.78110812
H       5.51714465      1.86901029     -1.35856423
H       7.37643031      0.97757330     -0.05377801
