8
FC(F)(Cl)C(F)(F)Cl
F       1.45613696     -1.04284955      0.34299519
C       0.75848034      0.02216883     -0.14665377
F       0.99402248      0.03340353     -1.48896393
Cl      1.45409797      1.50568045      0.56413925
C      -0.74480100     -0.14484186      0.14691333
F      -0.97765769     -0.18015820      1.48927435
F      -1.19048907     -1.33941711     -0.33795461
Cl     -1.74978998      1.14601393     -0.56974982
