24
COP(=S)(OC)Oc1cc(Cl)c(Br)cc1Cl
C       2.31084757      2.06573354     -1.58827945
O       1.34582434      1.53433514     -0.70153997
P       1.38384710     -0.05541687     -0.38800345
S       1.13720353     -1.23713113     -1.90712982
O       2.79590804     -0.17672445      0.39731093
C       3.09921634     -1.39979808      1.03986697
O       0.32631767     -0.16876221      0.83789110
C      -1.02359380     -0.17480308      0.61409236
C      -1.66649228      0.98654736      0.18791691
C      -3.04875974      0.97795657     -0.02553040
Cl     -3.77963106      2.44920702     -0.55941655
C      -3.78344847     -0.19368143      0.19964600
Br     -5.66160396     -0.29167588     -0.06567244
C      -3.13610962     -1.35146222      0.64475340
C      -1.75779505     -1.33834061      0.85749131
Cl     -0.98785348     -2.77656690      1.41812869
H       2.28906617      3.15591105     -1.51238604
H       2.07124800      1.78296465     -2.61632201
H       3.31407257      1.71733633     -1.32933463
H       4.00531278     -1.26364781      1.63579782
H       3.28327905     -2.18123150      0.29856199
H       2.28548742     -1.69975860      1.70501173
H      -1.10047175      1.90130444      0.03037431
H      -3.70187137     -2.26229533      0.82677123
