35
C[C@@H](CN1CC(=O)NC(=O)C1)N1CC(=O)NC(=O)C1
C      -0.34028929     -1.62918820     -0.90706490
C      -0.46527345     -0.55840674      0.18759107
C       0.51650941      0.63089188     -0.07695743
N       1.94455088      0.26073092     -0.18579936
C       2.49926458     -0.16789216      1.11649358
C       3.98404992     -0.51269235      0.99929841
O       4.56829159     -1.19362889      1.84045378
N       4.66761210      0.04448918     -0.04909784
C       4.20164487      1.07207920     -0.82658155
O       4.96846160      1.72629577     -1.53088142
C       2.72036474      1.41670689     -0.69041101
N      -1.84297640     -0.05124203      0.40731983
C      -2.68144029     -1.02828123      1.13394917
C      -4.04544480     -0.42971557      1.47723737
O      -4.76858710     -0.89856699      2.35435710
N      -4.47356210      0.61459366      0.69885945
C      -3.89583111      1.00368029     -0.48198328
O      -4.48787693      1.75356257     -1.25609121
C      -2.53909330      0.38392329     -0.81963116
H      -1.04461511     -2.45174966     -0.75001583
H       0.66304136     -2.06872085     -0.90543984
H      -0.51502136     -1.21307643     -1.90471317
H      -0.15000974     -1.01900855      1.13174943
H       0.38647317      1.39031639      0.70657871
H       0.22047793      1.10322357     -1.02211792
H       2.00032511     -1.08074081      1.45632388
H       2.38903547      0.60969397      1.88148125
H       5.65935979     -0.13632977     -0.08863436
H       2.36330815      1.68796653     -1.69059173
H       2.63056067      2.28630747     -0.02844443
H      -2.20370975     -1.28970782      2.08505815
H      -2.85105390     -1.94169825      0.55369831
H      -5.39686152      0.97309602      0.89067184
H      -1.96213315      1.15983695     -1.33189709
H      -2.71955203     -0.44674823     -1.51108176
