38
CCOC(=O)CC(SP(=O)(OC)OC)C(=O)OCC
C       4.85564466     -2.90222499     -0.40887099
C       3.98941764     -2.35865755      0.71166600
O       2.62136377     -2.27833535      0.28436685
C       2.26426053     -1.12579443     -0.34648839
O       3.01460421     -0.19728624     -0.60975893
C       0.80343891     -1.18414386     -0.71878135
C       0.30675090      0.19973878     -1.13737337
S      -1.37311455      0.06627506     -1.84562192
P      -2.68695912      0.20853202     -0.23269451
O      -2.63521710      1.57678589      0.38032325
O      -4.18203453     -0.15764150     -0.73629942
C      -5.24724805      0.22287750      0.11328894
O      -2.40467432     -0.96272023      0.84370379
C      -2.64206593     -2.30575143      0.47592115
C       0.32444391      1.15858849      0.04243953
O       0.34570649      0.80289499      1.21424066
O       0.31047384      2.44896396     -0.39083100
C       0.28650272      3.42171930      0.66028470
C       0.17296578      4.79557646      0.02939184
H       5.89045372     -3.02200343     -0.07591212
H       4.47938994     -3.87246269     -0.74946923
H       4.84244113     -2.23372025     -1.27547200
H       4.35394137     -1.38759619      1.06601882
H       4.01818677     -3.04396961      1.56510267
H       0.24518163     -1.56087682      0.14553964
H       0.71025949     -1.90003151     -1.54398147
H       0.96448617      0.60140891     -1.91721614
H      -5.06681131     -0.12269143      1.13488812
H      -5.36219999      1.30989462      0.10177130
H      -6.16903363     -0.23344711     -0.25600189
H      -2.23150765     -2.52379874     -0.51275166
H      -3.71574501     -2.50979337      0.48359008
H      -2.15727096     -2.95778850      1.20697744
H       1.21414250      3.35519477      1.23951983
H      -0.57110742      3.24630667      1.31885173
H       0.15570336      5.57633907      0.79486469
H       1.01479327      4.98069818     -0.64598451
H      -0.73956314      4.86894054     -0.57149967
