8
ClCCBr
Cl     -2.01792700     -0.74756805     -0.38994716
C      -0.67888010      0.35232293      0.01593547
C       0.63900399     -0.38973088     -0.02915769
Br      2.09236557      0.82963704      0.41762283
H      -0.87613555      0.76119956      1.01196580
H      -0.69968065      1.17870865     -0.70157465
H       0.68169741     -1.20270007      0.70113383
H       0.85955634     -0.78186919     -1.02597842
