12
OCC#CCO
O      -2.25275242      0.04533797     -1.65140117
C      -1.94253792     -0.70448718     -0.48561826
C      -0.59450452     -0.36837772     -0.02599367
C       0.51592813     -0.08690344      0.33721893
C       1.86775108      0.27117333      0.76823504
O       2.45836488      1.14597918     -0.18224450
H      -1.51654093     -0.09168365     -2.27194896
H      -2.02496517     -1.76852036     -0.72656401
H      -2.68811332     -0.46895232      0.27913394
H       1.85340417      0.77450632      1.73955703
H       2.50073946     -0.61669417      0.85322158
H       1.82322655      1.86862203     -0.32453826
