50
CN1CCC[C@@H]1CCO[C@](C)(c1ccccc1)c1ccc(Cl)cc1
C       4.85320063     -1.53270122      0.67763208
N       4.33577915     -0.23368033      1.09195324
C       5.34874393      0.81472333      0.94432961
C       4.54710978      2.10394593      1.02000575
C       3.12123850      1.71172817      0.64827761
C       3.18454772      0.22299264      0.29585442
C       1.89034814     -0.52969367      0.62312710
C       0.67225734      0.04682003     -0.09452816
O      -0.44311076     -0.80199141      0.17757757
C      -1.74066183     -0.16879073      0.29443222
C      -1.76805380      0.56197143      1.65859632
C      -2.81121207     -1.28876724      0.37546087
C      -2.45910092     -2.65040387      0.38056663
C      -3.43629056     -3.64806164      0.43741759
C      -4.78396618     -3.30527672      0.49791454
C      -5.15701623     -1.96517947      0.50285577
C      -4.18169732     -0.96640577      0.44009200
C      -2.00133084      0.71829704     -0.94104950
C      -1.98456854      0.13259818     -2.22491125
C      -2.22161360      0.89182752     -3.37309904
C      -2.47597306      2.25340209     -3.25643377
Cl     -2.77061150      3.19452657     -4.66623652
C      -2.49301204      2.85874658     -2.00288934
C      -2.25775183      2.09674650     -0.85247872
H       4.11277745     -2.32217127      0.84466269
H       5.73149926     -1.79947288      1.27647821
H       5.14143243     -1.55028907     -0.37958965
H       5.85919196      0.75466432     -0.02658288
H       6.10276305      0.76646877      1.73747808
H       4.56730897      2.52001540      2.03550347
H       4.94788852      2.86368884      0.33883723
H       2.75509040      2.30610541     -0.19686417
H       2.45724788      1.90124028      1.50184624
H       3.40253448      0.12437869     -0.77805041
H       1.70091238     -0.51829997      1.70530261
H       1.98745103     -1.58863226      0.35402268
H       0.49452472      1.07531031      0.23093669
H       0.84373160      0.05186294     -1.17629583
H      -2.74076564      1.01933309      1.87252033
H      -1.54099786     -0.13656546      2.47443583
H      -1.01541796      1.35417188      1.72387374
H      -1.41335933     -2.95080886      0.33560349
H      -3.14095781     -4.69337851      0.43051269
H      -5.54269158     -4.08253297      0.54163774
H      -6.20882073     -1.69433291      0.54923959
H      -4.50371917      0.07275512      0.43312563
H      -1.78643332     -0.93419934     -2.32987486
H      -2.20745219      0.41208773     -4.34760810
H      -2.68979275      3.92411686     -1.91243100
H      -2.28119988      2.60710993      0.10681295
