10
CCN
C       1.07785131      0.32575224     -0.22519535
C      -0.18070525     -0.51686167     -0.11480383
N      -1.33666266      0.32830130      0.15344461
H       1.94204547     -0.31266792     -0.43503119
H       1.27683870      0.86660687      0.70620886
H       0.99477317      1.05781412     -1.03563801
H      -0.06695852     -1.25148376      0.68918599
H      -0.34154579     -1.06452854     -1.04890706
H      -2.16206921     -0.25664497      0.27655892
H      -1.20356723      0.82371233      1.03417705
