19
O=C(O)COc1ccccc1Cl
O       4.44540253     -0.43873595     -0.06000340
C       3.36691044      0.05699583     -0.35360697
O       3.24704326      1.07558774     -1.23986607
C       2.04031362     -0.39966297      0.23007251
O       1.00008670      0.39802113     -0.33621964
C      -0.28632059      0.14396799      0.06253070
C      -0.65479526     -0.84076589      0.98471471
C      -1.99973374     -1.02113914      1.32609011
C      -2.98663072     -0.22252755      0.75178236
C      -2.63230392      0.76183887     -0.16816731
C      -1.29010085      0.94351651     -0.51032806
Cl     -0.90039674      2.17891169     -1.65745368
H       2.30042667      1.32733881     -1.33511055
H       1.90222038     -1.45126020     -0.04174070
H       2.08522081     -0.25028611      1.31380628
H       0.07434651     -1.48900487      1.46059419
H      -2.27750609     -1.78980149      2.04459821
H      -4.03047587     -0.36680204      1.02052715
H      -3.40370713      1.38380765     -0.61506819
