29
COc1ccc(C(=O)c2ccccc2)c(O)c1
C       5.16766572      0.80658918      0.51931515
O       4.04656532      0.30357384      1.23678465
C       2.87799628      0.17093956      0.53888482
C       1.80898643     -0.33580385      1.28404102
C       0.55097811     -0.52025108      0.70129925
C       0.34726573     -0.18366636     -0.64128484
C      -0.97638361     -0.35653212     -1.29445338
O      -1.01413786     -0.51931294     -2.51421673
C      -2.24677262     -0.31935315     -0.53418614
C      -3.25560641     -1.22632936     -0.87644663
C      -4.47006078     -1.20834875     -0.18972723
C      -4.68241984     -0.27697095      0.82700243
C      -3.68651957      0.64439208      1.15329931
C      -2.46942417      0.63063941      0.46955540
C       1.43200164      0.29285473     -1.39169890
O       1.33461674      0.59640360     -2.72554424
C       2.68548356      0.48215941     -0.80628747
H       4.97963613      1.82174458      0.15436075
H       6.01357505      0.85332988      1.21190801
H       5.44506612      0.13549012     -0.30028767
H       1.96149946     -0.59545632      2.32973092
H      -0.24560660     -0.94019689      1.30947763
H      -3.09782427     -1.94537352     -1.67766049
H      -5.25299038     -1.91551968     -0.45274202
H      -5.63165119     -0.26111872      1.35767376
H      -3.86399345      1.38049568      1.93387961
H      -1.71566981      1.37411738      0.71619761
H       0.47145783      0.24789679     -3.04695220
H       3.48626644      0.86360747     -1.43051904
