25
O=C(O)CCCOc1ccc(Cl)cc1Cl
O       4.07819675     -0.85351160      0.29516790
C       3.60799650      0.23122385     -0.00232756
O       4.23159907      1.03196910     -0.88738049
C       2.35591652      0.86110853      0.54391302
C       1.51980690     -0.11783957      1.37155475
C       0.87949413     -1.22926258      0.53579534
O       0.09432525     -0.69585929     -0.52870751
C      -1.21459796     -0.35876721     -0.31679639
C      -1.88070756     -0.45990052      0.90831893
C      -3.22473431     -0.08440160      1.01731893
C      -3.90897881      0.39530793     -0.09668922
Cl     -5.56002006      0.85474430      0.04845475
C      -3.26451626      0.50675060     -1.32300444
C      -1.92295544      0.13158302     -1.42965853
Cl     -1.16315950      0.29505000     -2.97647063
H       5.01747847      0.51819712     -1.16806015
H       1.76621662      1.26228196     -0.28697148
H       2.66279036      1.69614012      1.18377988
H       2.13481890     -0.57105062      2.15787841
H       0.73393472      0.45966037      1.87122809
H       1.66251379     -1.83418129      0.06609641
H       0.31183052     -1.93091119      1.15691110
H      -1.38847763     -0.82218051      1.80456490
H      -3.72993178     -0.16900041      1.97678206
H      -3.79883919      0.88284949     -2.19088729
