35
CCNc1nc(NC(C)(C)C)nc(SC)n1
C      -3.68934572      2.93088787      0.14927720
C      -3.16837111      1.54315947     -0.19001351
N      -1.81526237      1.40102037      0.31695676
C      -1.20029504      0.19481473     -0.00245700
N       0.10043125      0.26631297     -0.23968208
C       0.70963507     -0.87097315     -0.53736948
N       2.06218207     -0.90861230     -0.82015195
C       3.02086111     -0.01039979     -0.16818740
C       2.90901537     -0.07635233      1.36195981
C       4.42629587     -0.50627729     -0.57089341
C       2.87362166      1.43288405     -0.67196419
N       0.09618078     -2.03986229     -0.60390213
C      -1.20606988     -2.01024532     -0.34591797
S      -2.05292625     -3.57387123     -0.43563304
C      -3.59252931     -3.15358657      0.41656376
N      -1.90489817     -0.92337863     -0.04661634
H      -3.06527363      3.70738686     -0.30583080
H      -3.69181813      3.09524788      1.23209150
H      -4.71243566      3.05477215     -0.21890955
H      -3.19040568      1.40829536     -1.27830570
H      -3.83459914      0.79978121      0.26385257
H      -1.16597530      2.12507756      0.02413837
H       2.31755497     -1.89187695     -0.79903306
H       3.70653951      0.50392605      1.83990495
H       1.95684202      0.32657132      1.72252080
H       2.98464319     -1.10952806      1.72035181
H       4.59429513     -1.53726036     -0.23736867
H       5.21237665      0.11849012     -0.13199003
H       4.55354836     -0.49208704     -1.65989543
H       1.95716035      1.90996928     -0.31289581
H       3.70702333      2.05585106     -0.32672978
H       2.85859299      1.47035848     -1.76730509
H      -3.39041645     -2.78849215      1.42749424
H      -4.21139428     -4.05178339      0.49433932
H      -4.15478359     -2.40021994     -0.14229102
