6
O=C([O-])O.[Na+]
O      -0.16376355      1.18985664     -0.28805787
C      -0.38966469     -0.01322306     -0.01337965
O      -1.45899615     -0.65409375      0.09274564
O       0.74556085     -0.66678984      0.18911664
Na      0.00000000      0.00000000      0.00000000
H       1.26686355      0.14425001      0.01957524
