56
C[C@]12C[C@H](O)[C@H]3[C@@H](CCC4=CC(=O)CC[C@@]43C)[C@@H]1CC[C@]2(O)C(=O)CO
C       2.22410013      1.29673554      0.00633906
C       1.81074567     -0.12007372     -0.47289119
C       0.95971056     -0.03379685     -1.75821947
C      -0.43384204      0.58968964     -1.52672825
O      -0.29442681      1.99190063     -1.35251062
C      -1.21305781     -0.05571280     -0.33966030
C      -0.33760185     -0.20168773      0.94725735
C      -1.08890838     -1.01622868      2.01253762
C      -2.43849576     -0.39976562      2.34876060
C      -3.28883106     -0.20207075      1.11751054
C      -4.55489445     -0.65585286      1.10000562
C      -5.47168261     -0.35856531     -0.02429090
O      -6.60425127     -0.83420121     -0.02391288
C      -4.99755119      0.59710159     -1.08676937
C      -3.50660892      0.41549689     -1.32981621
C      -2.63857687      0.56491241     -0.04486402
C      -2.59677507      2.05531158      0.36160539
C       0.98047202     -0.89585942      0.57365594
C       1.99082881     -1.20099006      1.67600470
C       3.32200272     -1.43532114      0.92860295
C       3.06826610     -1.04009013     -0.54470072
O       2.74803295     -2.25917256     -1.24396015
C       4.24659204     -0.43060798     -1.32148252
O       4.23882982     -0.44068814     -2.56129935
C       5.43319377      0.15097384     -0.56773189
O       6.30720902      0.85561513     -1.43937336
H       1.37896278      1.90906816      0.32535296
H       2.90635224      1.26728326      0.86131413
H       2.73254587      1.84298709     -0.79631638
H       0.80075231     -1.03652789     -2.17305888
H       1.50399982      0.54021217     -2.51812180
H      -1.01206196      0.44768987     -2.44678196
H       0.10418810      2.35427517     -2.16337598
H      -1.40325827     -1.09136721     -0.66942088
H      -0.12873136      0.78653165      1.36948159
H      -1.23512601     -2.04707429      1.66384004
H      -0.49278795     -1.07505107      2.93075740
H      -2.94495411     -1.03868554      3.08267131
H      -2.28779038      0.57001183      2.83873553
H      -4.99665869     -1.20385000      1.92503149
H      -5.54164263      0.38473825     -2.01365182
H      -5.23786277      1.61856326     -0.77554680
H      -3.18753177      1.13212915     -2.09626410
H      -3.35481793     -0.58494380     -1.75915471
H      -2.42813179      2.71004774     -0.49885059
H      -1.81457318      2.26275304      1.09822013
H      -3.54604223      2.37728116      0.80732612
H       0.69937662     -1.87184339      0.14471432
H       2.08751010     -0.36166119      2.37389982
H       1.70696777     -2.08340548      2.25877118
H       4.10067245     -0.84166236      1.41507252
H       3.61561537     -2.48830994      1.01275171
H       2.82296370     -2.06096265     -2.19998038
H       5.09416332      0.85453997      0.19372313
H       5.99478907     -0.66396474     -0.10346649
H       6.19863200      0.45414547     -2.32517661
