15
O=S(=O)(Cl)c1ccccc1
O       2.65835566     -0.69116285      1.61087086
S       2.32777771      0.19977508      0.51828115
O       2.70859368      1.59675746      0.50333733
Cl      3.15670618     -0.62859645     -1.15535072
C       0.59977083      0.06475940      0.16098523
C      -0.05546298      1.11517785     -0.48970407
C      -1.42133399      1.01237491     -0.75264016
C      -2.12516161     -0.12728808     -0.35934854
C      -1.46919006     -1.16689708      0.30231460
C      -0.10351510     -1.07302401      0.56957355
H       0.48321032      2.01122229     -0.79175512
H      -1.94072086      1.82222639     -1.26018438
H      -3.19098241     -0.20285967     -0.56380947
H      -2.02571421     -2.04820682      0.61343771
H       0.39766683     -1.88425842      1.09399203
