16
C=CC(=O)OCCO
C       3.34549541     -0.16191561      0.63900586
C       2.11433114      0.33276114      0.45921678
C       0.95427505     -0.56813732      0.29548539
O       0.99920413     -1.78636294      0.30047689
O      -0.15364985      0.19914107      0.13919452
C      -1.36307885     -0.56199204     -0.02894645
C      -2.50285962      0.41602569     -0.28711832
O      -2.69797040      1.25999420      0.84620539
H       3.52982235     -1.23287877      0.67049187
H       4.19810039      0.49792769      0.75935528
H       1.93234436      1.39977889      0.42820557
H      -1.55338348     -1.12583367      0.89125543
H      -1.25982674     -1.24339824     -0.88057230
H      -3.43707680     -0.11977263     -0.47672599
H      -2.28077568      1.05914410     -1.14449227
H      -1.82495140      1.63551843      1.06230177
