47
C[C@]12C=CC(=O)C=C1CC[C@@H]1[C@@H]2CC[C@]2(C)[C@@H](O)CC[C@@H]12
C       2.36434205     -1.74945172      0.72359729
C       2.25839239     -0.32774311      0.12825235
C       3.19268604     -0.30373814     -1.07721361
C       4.28318790      0.46563478     -1.19323390
C       4.67354235      1.39490748     -0.11756825
O       5.67909541      2.08771413     -0.20734499
C       3.79506056      1.46434691      1.06714721
C       2.69816362      0.69479582      1.18585205
C       1.78882307      0.85462883      2.37823366
C       0.37545934      1.20832965      1.92658326
C      -0.17182714      0.18490743      0.92014653
C       0.79015924      0.03547255     -0.30865089
C       0.18831817     -0.90876667     -1.38845040
C      -1.25989266     -0.55782962     -1.77662833
C      -2.16652011     -0.45794276     -0.54413589
C      -2.35687352     -1.86717772      0.07300533
C      -3.53459056      0.20262994     -0.80208253
O      -4.48434155     -0.69192637     -1.34798694
C      -3.96654376      0.71995403      0.58381850
C      -2.67871905      0.83928955      1.41901623
C      -1.55974241      0.58692003      0.41165620
H       2.16798827     -2.52293351     -0.02774760
H       3.37142213     -1.93873697      1.11738396
H       1.66361259     -1.91600013      1.54711905
H       2.97602255     -0.98929008     -1.89343722
H       4.92848286      0.43559895     -2.06258276
H       4.08804731      2.19099075      1.81634238
H       2.15061469      1.63942569      3.05378445
H       1.77822343     -0.07161820      2.96403273
H      -0.27433737      1.25465484      2.80832119
H       0.37333651      2.21071837      1.47851344
H      -0.24751492     -0.77481952      1.44288250
H       0.84140536      1.02910939     -0.78454646
H       0.22592233     -1.94772413     -1.04621102
H       0.78912350     -0.86436799     -2.30329539
H      -1.25263005      0.39788037     -2.31680894
H      -1.64434139     -1.30597771     -2.48025979
H      -1.41830052     -2.30971286      0.41666133
H      -2.78046579     -2.55733708     -0.66599188
H      -3.03649212     -1.85956265      0.93099977
H      -3.43048551      1.04863427     -1.49324348
H      -5.33314992     -0.22028785     -1.40148363
H      -4.68481633      0.04976750      1.06931303
H      -4.45775624      1.69435002      0.48387490
H      -2.67319146      0.09286108      2.22108693
H      -2.59694242      1.82679948      1.88443761
H      -1.43195689      1.53262298     -0.14172512
