59
CC(=O)OCC(=O)[C@@]1(O)CC[C@H]2[C@@H]3CCC4=CC(=O)CC[C@]4(C)[C@H]3C(=O)C[C@@]21C
C       7.64912345     -0.01811941      0.78848405
C       6.15609217      0.03973602      0.69359970
O       5.50995630      1.05354221      0.45580810
O       5.62016790     -1.19363506      0.91144609
C       4.19542594     -1.23693446      0.80931829
C       3.69219090     -0.85609754     -0.58291700
O       4.18641607     -1.36975698     -1.59025808
C       2.55226670      0.18414758     -0.65865662
O       2.76914356      1.22400132      0.30003004
C       2.44882887      0.86058374     -2.05222513
C       0.94815087      1.07583588     -2.32909350
C       0.26240600      0.72719102     -1.01293087
C      -1.23597801      0.39204903     -1.03971947
C      -2.05358994      1.54449004     -1.63739363
C      -3.54152257      1.22059868     -1.63878276
C      -4.04163172      0.84975130     -0.26212799
C      -5.14558834      1.44777657      0.22115208
C      -5.75830201      1.03892762      1.50549636
O      -6.74545613      1.63988997      1.92167130
C      -5.18721465     -0.16264915      2.20808903
C      -3.68163808     -0.23424383      1.99573512
C      -3.25406577     -0.23526997      0.49640168
C      -3.60462479     -1.59719758     -0.14474818
C      -1.71917540      0.09359932      0.41085313
C      -0.78018178     -0.93487953      1.07453130
O      -1.17672517     -1.92577558      1.68463415
C       0.71183397     -0.63747324      1.01322543
C       1.13441421     -0.42107407     -0.44379722
C       0.97959290     -1.75617581     -1.22192147
H       7.94450731     -0.33789771      1.79077412
H       8.04206223     -0.70369290      0.03356914
H       8.06220289      0.97757456      0.60369172
H       3.75697563     -0.61217683      1.59296337
H       3.87348031     -2.26548850      1.00301787
H       3.68354519      1.56454372      0.16973955
H       2.87067569      0.25104754     -2.85825330
H       2.97162196      1.82416771     -2.06540809
H       0.74761923      2.10825554     -2.63371362
H       0.61296934      0.42186152     -3.14200770
H       0.37236752      1.61119145     -0.36385727
H      -1.39061558     -0.48873289     -1.67263609
H      -1.73652290      1.73966914     -2.66836170
H      -1.87654936      2.46742483     -1.07000550
H      -3.73503598      0.38630324     -2.32422538
H      -4.08817058      2.08208504     -2.04178423
H      -5.68478777      2.21729160     -0.32102240
H      -5.69303598     -1.06058084      1.83970322
H      -5.39448738     -0.06890688      3.27989387
H      -3.22712113      0.62832664      2.50335672
H      -3.30984948     -1.12538656      2.51233285
H      -3.21754490     -2.43817636      0.43769710
H      -3.20580705     -1.69328236     -1.15938918
H      -4.68958117     -1.73857391     -0.21730139
H      -1.56094200      1.01431409      0.99568807
H       1.25963804     -1.47521299      1.45866587
H       0.89210413      0.24266194      1.64016717
H      -0.04488394     -2.13948642     -1.20007560
H       1.26666546     -1.66432164     -2.27392645
H       1.60818480     -2.53763989     -0.77961696
