28
COP(=O)(OC)OC(=CCl)c1cc(Cl)c(Cl)cc1Cl
C      -0.53087197     -0.93733686      2.96332535
O      -0.67988951      0.05535633      1.96924471
P      -1.39541731     -0.40367958      0.59816510
O      -0.82279063     -1.64084334     -0.02259847
O      -2.94510832     -0.52493114      1.02669621
C      -3.84465026     -0.93137199      0.01563915
O      -1.36098709      0.92710384     -0.30863569
C      -0.27723089      1.48228701     -0.95891547
C      -0.37092805      2.64378387     -1.61668752
Cl     -1.81305741      3.56561837     -1.72627479
C       1.00252835      0.75916028     -0.91988090
C       1.83654074      0.93815795      0.19515664
C       3.05500197      0.25818424      0.29068505
Cl      4.01162425      0.52421729      1.70399123
C       3.45668787     -0.60083357     -0.73753014
Cl      4.94988494     -1.46819038     -0.68713920
C       2.64095189     -0.77643361     -1.85776430
C       1.42170818     -0.09983126     -1.95033507
Cl      0.46093110     -0.36239675     -3.36379716
H      -0.09774663     -0.47766637      3.85518381
H      -1.50210464     -1.36702738      3.22265129
H       0.14177078     -1.72313039      2.60964622
H      -3.60395487     -1.94516135     -0.31516238
H      -3.80029020     -0.24273995     -0.83241473
H      -4.85823946     -0.92438191      0.42427420
H       0.44655993      3.11693767     -2.14589532
H       1.52733133      1.60118489      1.00287620
H       2.95174591     -1.44603591     -2.65665914
