14
CCC(C)Br
C      -1.93110717     -0.22840832      0.13738552
C      -0.47414524     -0.60016437     -0.11130945
C       0.49767560      0.55151787      0.14955408
C       1.89457074      0.23543124     -0.36616981
Br      0.63244581      0.89930309      2.07500892
H      -2.22167512      0.63979735     -0.46274635
H      -2.58261017     -1.06319750     -0.14091736
H      -2.11926692      0.00100288      1.19002911
H      -0.21602544     -1.47486064      0.49825074
H      -0.38674148     -0.91069262     -1.16007703
H       0.13632907      1.48309018     -0.29796892
H       2.30436728     -0.66626186      0.10283404
H       1.87852326      0.07370325     -1.44921973
H       2.58765977      1.05973944     -0.16465376
