33
CCO[Si](OCC)(OCC)OCC
C       1.47235926     -1.49514429      3.34975100
C       1.49526066     -0.65356835      2.08597487
O       0.26310312     -0.84677280      1.40295923
Si      0.00000031      0.00000080      0.00000083
O      -0.10634459      1.61944820      0.34730740
C      -1.20766028      2.07117259      1.12518904
C      -1.05219890      3.56614738      1.34149353
O      -1.41514179     -0.51165937     -0.70008349
C      -1.57932371     -1.90178929     -0.95035305
C      -2.92160514     -2.10440992     -1.63089011
O       1.25838486     -0.26101300     -1.05018081
C       1.29172623      0.48418865     -2.26080617
C       2.50144209      0.03340229     -3.06035860
H       0.63428091     -1.20376977      3.99156553
H       1.33456719     -2.55371805      3.10560326
H       2.40371892     -1.38052668      3.91135709
H       2.33749581     -0.97077621      1.45855856
H       1.62647259      0.40092582      2.35960700
H      -1.22705513      1.56783211      2.10003352
H      -2.15294389      1.88044683      0.60203076
H      -1.02218742      4.09345300      0.38221153
H      -0.11057174      3.78517821      1.85585189
H      -1.87997437      3.96210854      1.93644857
H      -1.56447894     -2.46697817     -0.01015457
H      -0.78391808     -2.27465544     -1.60788608
H      -2.96605152     -1.54306998     -2.57010406
H      -3.73461564     -1.73308043     -0.99819576
H      -3.09494318     -3.16302044     -1.84365015
H       0.38450084      0.30590963     -2.85174487
H       1.37993785      1.55731110     -2.05042795
H       2.44233165     -1.03834208     -3.27731748
H       2.57119485      0.58143521     -4.00416125
H       3.42223717      0.19333390     -2.48962924
