31
CCCCC1(CC)C(=O)NC(=O)NC1=O
C       4.20584407     -0.08621517      0.33936271
C       2.86858986     -0.48629126      0.94228061
C       1.69845411      0.11565472      0.16056417
C       0.35442582     -0.28789086      0.78215145
C      -0.91504356      0.19469966      0.01277598
C      -0.90110905      1.73128769     -0.17735529
C      -2.15765456      2.30590368     -0.83124620
C      -2.09495009     -0.23041659      0.88005450
O      -2.61392810      0.48710640      1.73177183
N      -2.52254670     -1.52004616      0.71884858
C      -2.36089756     -2.24550022     -0.41974609
O      -3.08795772     -3.19837870     -0.67995665
N      -1.41655913     -1.81403198     -1.29690308
C      -0.95762460     -0.52668322     -1.32828369
O      -0.56968087     -0.03671041     -2.38573853
H       4.33078725      1.00126867      0.34862393
H       5.02720651     -0.52738401      0.91262384
H       4.28901862     -0.43315356     -0.69554960
H       2.83025321     -0.15264574      1.98578597
H       2.79020460     -1.57969079      0.94747343
H       1.75085182     -0.22167325     -0.88038882
H       1.80019442      1.20628839      0.15883155
H       0.33432467     -1.38221442      0.87962846
H       0.31861434      0.10056400      1.80973248
H      -0.05031272      2.02825357     -0.80204930
H      -0.76415867      2.22411202      0.79368007
H      -2.32878134      1.88034508     -1.82405456
H      -3.05093187      2.13107397     -0.22561774
H      -2.04905863      3.38916261     -0.95007884
H      -3.31426081     -1.78843769      1.28815508
H      -1.44331331     -2.27835641     -2.19537625
