16
NC(=O)c1ccccc1
N       2.72276435     -0.50221531      0.29933857
C       1.89312513      0.46691048     -0.19461695
O       2.34992692      1.51186952     -0.64035660
C       0.42833422      0.21746280     -0.12581207
C      -0.43516170      1.31950225     -0.16888549
C      -1.81718000      1.13286381     -0.10613726
C      -2.34229307     -0.15506373     -0.00875845
C      -1.48871287     -1.25797266      0.01923719
C      -0.10470203     -1.07544208     -0.04223253
H       2.39052351     -1.21796463      0.92886310
H       3.70054655     -0.24782459      0.36270546
H      -0.03113795      2.32689815     -0.25005454
H      -2.48215654      1.99240075     -0.13740137
H      -3.41913588     -0.29958277      0.03593745
H      -1.90290354     -2.26156762      0.07925166
H       0.53816290     -1.95027436     -0.05107817
