15
Cc1occc(=O)c1O
C      -2.02060461     -0.93127760     -0.40809064
C      -0.62615967     -0.45438477     -0.14694170
O       0.31616466     -1.47687121     -0.13657119
C       1.63323620     -1.15922137      0.09368790
C       2.09503327      0.07385542      0.31297533
C       1.12408034      1.17821626      0.30856555
O       1.45512345      2.34398933      0.50057663
C      -0.30086644      0.83245515      0.05919019
O      -1.22244369      1.86140345      0.05262775
H      -2.07010079     -1.43202404     -1.38047744
H      -2.32295717     -1.64737671      0.36295936
H      -2.75282583     -0.11824363     -0.41386055
H       2.25397031     -2.04485274      0.07432275
H       3.13531067      0.30355414      0.49222502
H      -0.69696070      2.67077831      0.22881104
