24
O=C1C(=O)c2ccccc2-c2ccccc21
O       1.23311213      3.19126946      0.70655812
C       0.66526506      2.13160430      0.47649503
C      -0.84588755      2.06022690      0.50326762
O      -1.50257108      3.06205235      0.75502435
C      -1.49953044      0.76794412      0.22156725
C      -2.90496842      0.72401093      0.25167276
C      -3.57439146     -0.46583653     -0.00574554
C      -2.84165573     -1.60888507     -0.29251487
C      -1.44160802     -1.56168415     -0.32171454
C      -0.72690353     -0.37261042     -0.06576732
C       0.75600387     -0.30257294     -0.09203601
C       1.57006673     -1.41944771     -0.37506562
C       2.96848737     -1.33447720     -0.39543127
C       3.59993250     -0.12699426     -0.13281029
C       2.83089980      0.99491878      0.15008721
C       1.42739631      0.90618538      0.16972653
H      -3.47950941      1.62169170      0.47688290
H      -4.66077267     -0.49906504      0.01771032
H      -3.35640076     -2.54575458     -0.49555365
H      -0.93312370     -2.49355990     -0.55297449
H       1.14377777     -2.39547184     -0.58974432
H       3.56172684     -2.21900766     -0.61811536
H       4.68475701     -0.05766260     -0.14783409
H       3.32589736      1.94312598      0.35631526
