11
CS(C)(=O)=O
C      -1.40633078      0.03700287     -0.22899227
S       0.05125706     -0.31552362      0.72222080
C       1.36538627      0.21504021     -0.34792411
O       0.14990028     -1.75474543      0.86663996
O       0.04521504      0.55367149      1.88256993
H      -1.44280232      1.10835187     -0.43444857
H      -2.27691362     -0.26118071      0.35883981
H      -1.36827274     -0.53511594     -1.15773498
H       2.31386792      0.03370171      0.16185386
H       1.32161203     -0.36233506     -1.27315541
H       1.24708086      1.28113261     -0.54986902
