29
CCS(=O)(=O)CCn1c([N+](=O)[O-])cnc1C
C       4.62449956     -0.70149409      0.11437009
C       3.16547101     -1.11008681      0.11193566
S       2.08557536      0.30971360      0.19087508
O       2.25438074      0.94262634      1.48309105
O       2.23400717      1.06711260     -1.03690497
C       0.46397109     -0.41445651      0.15408062
C      -0.58194752      0.66691207      0.36343325
N      -1.92770181      0.19832641      0.07177988
C      -2.84046239     -0.38258760      0.91540685
N      -2.62006361     -0.72386127      2.27603009
O      -1.44879050     -0.85934387      2.64555695
O      -3.62458674     -0.88743863      2.97589781
C      -3.98419854     -0.56474409      0.18262925
N      -3.79111970     -0.13851959     -1.10387554
C      -2.55654964      0.32380400     -1.15800881
C      -1.92048384      0.91119453     -2.36852522
H       4.87646993     -0.14472605      1.02258690
H       5.26742113     -1.58554371      0.06598428
H       4.85650986     -0.06265938     -0.74376205
H       2.94324924     -1.74046684      0.97787596
H       2.92234864     -1.65675557     -0.80386709
H       0.35048638     -0.90684924     -0.81714608
H       0.42179314     -1.17724860      0.93549013
H      -0.56490095      1.06286974      1.38421106
H      -0.39105475      1.53121564     -0.28284766
H      -4.92878460     -0.98771353      0.50242179
H      -2.56820505      0.77811743     -3.24087953
H      -0.96391943      0.42637639     -2.58447782
H      -1.75341418      1.98398079     -2.23336192
