36
CCOP(=S)(OCC)SCC(=O)NC(C)C
C      -4.67750096      2.35570410     -1.04994804
C      -3.16813154      2.46448540     -1.12124532
O      -2.61146400      1.19141035     -0.83797637
P      -1.07041830      1.09273677     -0.32673487
S       0.20578673      1.82151677     -1.61869629
O      -0.95289511     -0.51758151     -0.16068127
C      -1.25095779     -1.36330642     -1.25767050
C      -1.06592462     -2.80145251     -0.81730496
S      -1.04077885      1.86853301      1.63059244
C       0.69491950      1.75689071      2.12647877
C       1.20516617      0.33200494      2.01464052
O       0.91298745     -0.53479985      2.83353855
N       2.00584693      0.09533756      0.91551976
C       2.64104140     -1.19690391      0.69531505
C       2.93092194     -1.39672252     -0.78869420
C       3.92443100     -1.30831567      1.51520221
H      -5.14926729      3.31625806     -1.27496937
H      -4.99331507      2.03173132     -0.05273693
H      -5.04464255      1.60667218     -1.75937132
H      -2.86425235      2.76966263     -2.12703522
H      -2.81389462      3.21107289     -0.40460652
H      -0.58091976     -1.14346156     -2.09334167
H      -2.28459863     -1.20590290     -1.57937711
H      -1.28869914     -3.49185843     -1.63556232
H      -0.03858512     -2.97340553     -0.48028003
H      -1.72119904     -3.03281000      0.02896740
H       1.29663142      2.43630758      1.51588494
H       0.79930888      2.07808995      3.16759823
H       2.28518848      0.86707000      0.31878039
H       1.94709486     -1.97874307      1.02613441
H       3.61271724     -0.62780899     -1.16879976
H       2.00859369     -1.33826364     -1.37576755
H       3.38484812     -2.37636322     -0.97029832
H       4.40222853     -2.28160151      1.36257270
H       3.71871289     -1.19863583      2.58534844
H       4.64101951     -0.52754715      1.23669770
