44
Nc1ccc(N=Nc2cccc(N=Nc3ccc(N)cc3N)c2)c(N)c1
N       8.06188327      0.95246453      1.51478600
C       6.79471813      0.66648676      0.99132114
C       5.69233580      0.56405547      1.83992618
C       4.41160922      0.36818648      1.31748324
C       4.20421260      0.32016933     -0.06789486
N       2.91193245      0.13859213     -0.60708592
N       2.43170487     -0.95912899     -0.24627303
C       1.16875912     -1.14372736     -0.83321996
C       1.03833051     -1.96348082     -1.95898815
C      -0.21104135     -2.17013638     -2.54242215
C      -1.34038417     -1.56351470     -1.99093668
C      -1.23554163     -0.75783274     -0.84666682
N      -2.34646224     -0.10810564     -0.27327183
N      -3.29893812     -0.90198140     -0.10663744
C      -4.40104310     -0.23776308      0.47126754
C      -4.74691552     -0.53467906      1.79384454
C      -5.86262191      0.06005125      2.38850215
C      -6.64298241      0.97411009      1.67919726
N      -7.83729456      1.45367327      2.23056909
C      -6.33877812      1.21690365      0.33492988
C      -5.19208190      0.67363962     -0.26322531
N      -4.97503912      0.87269057     -1.64632998
C       0.02701146     -0.55024849     -0.28228135
C       5.29357701      0.55391022     -0.93283333
N       5.14497315      0.44904651     -2.33421861
C       6.57979559      0.69582881     -0.39102033
H       8.20172659      0.60762053      2.45956227
H       8.82592134      0.69506340      0.89718024
H       5.82068926      0.62011377      2.91750562
H       3.56722855      0.25555360      1.99179775
H       1.92142836     -2.43653242     -2.38183654
H      -0.30556470     -2.80207372     -3.42158394
H      -2.31272146     -1.72434530     -2.45135410
H      -4.15259342     -1.25049424      2.35518985
H      -6.12588640     -0.21246206      3.40689479
H      -8.17315460      2.31186645      1.80475095
H      -7.83567123      1.50029138      3.24448876
H      -7.00503138      1.83636096     -0.25924829
H      -4.00276793      0.68209353     -1.88731858
H      -5.28948784      1.77799320     -1.97821637
H       0.12471653      0.08014130      0.59740652
H       5.80499139      1.01576942     -2.85589624
H       4.17876908      0.60223726     -2.61810374
H       7.42568882      0.82820491     -1.05974021
