25
CN(c1c([N+](=O)[O-])cc([N+](=O)[O-])cc1[N+](=O)[O-])[N+](=O)[O-]
C       2.55632726     -0.40883727      1.16684645
N       1.83858664      0.21215933      0.06083209
C       0.43195855      0.11814164      0.00855733
C      -0.36334593      1.29280938     -0.03646396
N       0.26207739      2.60847498      0.05888109
O       1.05709850      2.78875422      0.99004177
O      -0.08783551      3.45750209     -0.76907573
C      -1.76863823      1.27247904     -0.12550559
C      -2.42788974      0.04200104     -0.15776763
N      -3.89420079     -0.00034760     -0.24156358
O      -4.42356231     -1.10875033     -0.38895916
O      -4.50168331      1.07330584     -0.15147044
C      -1.70136283     -1.14979087     -0.09885847
C      -0.29655458     -1.09274612     -0.02136825
N       0.38482469     -2.37145999      0.01683230
O       1.12245077     -2.64666915     -0.93379980
O       0.17975535     -3.07500679      1.01215204
N       2.46676677      0.18912485     -1.18325577
O       1.77358401      0.48263190     -2.16299277
O       3.66776358     -0.08728510     -1.19004764
H       2.80760475     -1.45599968      0.96757737
H       1.96455516     -0.36734731      2.08892534
H       3.48664221      0.13414697      1.37082707
H      -2.32737389      2.20873186     -0.16165918
H      -2.20754852     -2.11602293     -0.11868489
