26
CNCC(O)c1ccc(O)c(O)c1
C       3.85479255      0.73958691      1.40880277
N       3.07589376     -0.22868201      0.64369793
C       1.63299573      0.08305441      0.73271020
C       0.82905117     -0.89016490     -0.16284997
O       1.38460505     -0.86013105     -1.48368043
C      -0.64418580     -0.54335018     -0.19089339
C      -1.47925979     -0.96910141      0.86062615
C      -2.83716548     -0.64109654      0.87475264
C      -3.36159132      0.11260749     -0.16289779
O      -4.68858884      0.43398260     -0.15079653
C      -2.55265364      0.54022705     -1.21100080
O      -3.13490046      1.27580126     -2.20667175
C      -1.19881534      0.22234030     -1.23118173
H       4.91754037      0.48828151      1.33787016
H       3.72826142      1.75156279      1.01091832
H       3.57591640      0.73183787      2.46749008
H       3.23962843     -1.15894340      1.03366892
H       1.28749166      0.02049360      1.77145379
H       1.47256830      1.10953885      0.37869041
H       0.94865842     -1.91917077      0.19828310
H       2.34207646     -0.71610657     -1.33564810
H      -1.07567746     -1.56366236      1.67763911
H      -3.47899218     -0.97196739      1.68537115
H      -4.81866404      0.95039974     -0.97122560
H      -2.45542891      1.44663794     -2.88220956
H      -0.56355647      0.55602426     -2.04718677
