68
O=c1c2ccccc2c(=O)c2c1ccc1c2[nH]c2c3c(=O)c4ccccc4c(=O)c3c3[nH]c4c(ccc5c(=O)c6ccccc6c(=O)c54)c3c12
O      -4.82015375     -4.94480479     -1.07306184
C      -4.97716909     -3.76849313     -0.76681706
C      -6.33437865     -3.22803945     -0.54825280
C      -7.44582607     -4.06934233     -0.68770761
C      -8.73241487     -3.56695101     -0.48506967
C      -8.91292592     -2.22683455     -0.14394314
C      -7.80724535     -1.38631546     -0.00454455
C      -6.51532033     -1.88858302     -0.20702048
C      -5.35187427     -0.99287055     -0.05717054
O      -5.50728835      0.18781696      0.23397044
C      -3.99724006     -1.53757241     -0.26198120
C      -3.81084930     -2.87419635     -0.61147777
C      -2.52883277     -3.37034670     -0.84730028
C      -1.40483711     -2.54365419     -0.70704078
C      -1.55004934     -1.20307896     -0.29187510
C      -2.85773513     -0.72121468     -0.12774268
N      -2.77349391      0.63219619      0.13702122
C      -1.46532102      1.05594826      0.11515980
C      -0.91352706      2.34026701      0.20967916
C      -1.77131646      3.53115991      0.34456969
O      -2.98941495      3.41142006      0.41218555
C      -1.14194872      4.86639250      0.39483489
C      -1.94637809      6.00610096      0.52140176
C      -1.36082118      7.27243966      0.56774790
C       0.02532594      7.40430664      0.48795925
C       0.82931581      6.27014855      0.36178340
C       0.24432536      4.99827333      0.31503370
C       1.10382864      3.80435917      0.18352074
O       2.32265358      3.91612631      0.11530647
C       0.47565180      2.47189474      0.13707528
C       1.25028281      1.30734034      0.05556246
N       2.61288727      1.13285316     -0.00946932
C       2.94221681     -0.20707377      0.06166583
C       1.74456317     -0.93425053      0.13919081
C       1.84784841     -2.32419797      0.35820934
C       3.10374400     -2.94701499      0.39407670
C       4.27264308     -2.20038888      0.24719742
C       5.58250429     -2.88356340      0.28882752
O       5.64326142     -4.10026311      0.42337794
C       6.81763554     -2.08279061      0.16592339
C       8.06379079     -2.72200886      0.19840940
C       9.23649177     -1.97323659      0.08491630
C       9.16897333     -0.58790501     -0.06054639
C       7.92863078      0.05157886     -0.09298248
C       6.75065858     -0.69800465      0.02030427
C       5.44344514     -0.01368458     -0.01537129
O       5.38051092      1.20487647     -0.13403761
C       4.21143012     -0.81620218      0.09313746
C       0.71669798      0.03131796      0.02914636
C      -0.71096739     -0.09415216     -0.03269937
H      -7.31344690     -5.11662690     -0.95441140
H      -9.59411674     -4.22202081     -0.59392889
H      -9.91559654     -1.83529091      0.01366110
H      -7.95639660     -0.34120230      0.26182760
H      -2.39013286     -4.40433303     -1.16123635
H      -0.43555439     -2.94782930     -0.97568627
H      -3.57803792      1.24409345      0.26100017
H      -3.02927618      5.91172017      0.58393015
H      -1.98709577      8.15655096      0.66606817
H       0.48133379      8.39136632      0.52412836
H       1.91065989      6.38160678      0.30049194
H       3.29279900      1.89057398     -0.03514116
H       0.97047149     -2.92977063      0.55449092
H       3.15707572     -4.02298590      0.55643675
H       8.12509139     -3.80308593      0.31228408
H      10.20314741     -2.47166321      0.11039667
H      10.08288151     -0.00438823     -0.14873546
H       7.88420552      1.13350333     -0.20665889
