12
O=c1[nH]cc(Br)c(=O)[nH]1
O      -2.54131912     -0.86668602      0.17455747
C      -1.38448036     -0.47074091      0.09505437
N      -0.32339932     -1.33380116      0.05879111
C       0.98119491     -0.92822591     -0.02964206
C       1.31392635      0.36764843     -0.08784569
Br      3.07474102      0.95283860     -0.20833413
C       0.20534722      1.36862133     -0.05292740
O       0.39661575      2.57985579     -0.10032534
N      -1.06398929      0.85547272      0.03666008
H      -0.55686834     -2.32027181      0.10193857
H       1.72481220     -1.71909719     -0.04949419
H      -1.82658102      1.51438613      0.06156721
