8
CCBr
C      -0.78498711     -0.13912979     -0.05267201
C       0.64901942      0.30259691      0.12389865
Br      1.85254431     -1.09739855     -0.48645854
H      -0.99652890     -1.04632952      0.52331765
H      -1.46752806      0.64510624      0.28930582
H      -1.01088827     -0.34942191     -1.10351502
H       0.88642980      0.49063232      1.17395336
H       0.87193882      1.19394429     -0.46782991
