13
O=P(O)(O)CCCl
O      -1.54418208      0.14442716     -1.98005955
P      -0.87053749      0.21333829     -0.65288482
O      -1.75863150     -0.45391917      0.49980517
O      -0.76240905      1.71851146     -0.11865679
C       0.74962067     -0.48605485     -0.49984307
C       1.31427636     -0.34739137      0.89678621
Cl      2.93963710     -1.06665730      0.98840895
H      -2.71413213     -0.29058295      0.38706229
H      -1.54550860      2.25779514     -0.33842957
H       0.70015002     -1.54431006     -0.78038808
H       1.41114596      0.00613169     -1.22177907
H       1.39753228      0.70339412      1.18820740
H       0.68303845     -0.85468216      1.63177091
