55
CCOC(=O)[C@H](CCc1ccccc1)N[C@@H](C)C(=O)N1CCC[C@H]1C(=O)O
C       1.37282748      5.05404828      1.78931785
C       2.46541854      4.28976720      1.06530050
O       2.18513950      2.88249307      1.09286987
C       1.37687029      2.42167403      0.09618148
O       0.88406886      3.10775786     -0.79114830
C       1.16206568      0.90746175      0.24704120
C       2.39144081      0.19022540     -0.33031142
C       2.33811596     -1.32663727     -0.12522239
C       3.60085557     -1.99419766     -0.61194775
C       4.66295393     -2.23947913      0.26831247
C       5.83620992     -2.84068640     -0.19043796
C       5.95994563     -3.19745552     -1.53201485
C       4.91155702     -2.95215416     -2.41673190
C       3.73764546     -2.35135595     -1.96004635
N      -0.05154596      0.47399682     -0.48047617
C      -1.29447691      0.50344527      0.31450335
C      -1.68417021      1.87656752      0.85849202
C      -2.44724739      0.00985080     -0.59583981
O      -2.53789390      0.35316613     -1.78135113
N      -3.44694519     -0.75621664     -0.04509783
C      -3.50274094     -1.24571373      1.32391382
C      -4.84459965     -1.95100687      1.42352921
C      -5.03289797     -2.50924915      0.01818697
C      -4.48102441     -1.39532242     -0.87836629
C      -5.58125686     -0.42110034     -1.34373869
O      -6.78129544     -0.65642988     -1.28788792
O      -5.11291294      0.70920274     -1.92494281
H       0.40609375      4.92374628      1.29269336
H       1.25726193      4.68209053      2.81268184
H       1.60549826      6.12200784      1.82584424
H       2.59570365      4.65013471      0.03844005
H       3.42030539      4.43568112      1.58077386
H       1.06456201      0.66932743      1.31352575
H       2.49485720      0.42163064     -1.39972589
H       3.29818811      0.58797372      0.14567354
H       2.19067616     -1.55800840      0.93733822
H       1.48041287     -1.76313084     -0.65157753
H       4.58354544     -1.96341421      1.31699283
H       6.65485059     -3.02967364      0.49887462
H       6.87382943     -3.66491685     -1.88865465
H       5.00800706     -3.22718705     -3.46373346
H       2.92858037     -2.16157633     -2.66225107
H      -0.17644393      1.07518210     -1.30598358
H      -1.17011471     -0.19750850      1.14511955
H      -1.75183147      2.61946192      0.05591509
H      -2.66644102      1.84129778      1.34241277
H      -0.96686199      2.23378333      1.60349503
H      -3.40355710     -0.42398149      2.03791847
H      -2.67594991     -1.95020488      1.46711191
H      -4.85629555     -2.72494902      2.19574247
H      -5.63773830     -1.22772274      1.64764477
H      -6.07133602     -2.78499309     -0.18441076
H      -4.41817700     -3.41113852     -0.09634258
H      -4.02498053     -1.81938226     -1.78086404
H      -4.12875160      0.70281868     -2.02674197
