27
CN[C@@H](C)[C@H](O)c1ccccc1
C      -3.43839572     -0.46600337     -0.38363523
N      -2.37050685     -0.90482370     -1.26400758
C      -1.02105867     -0.84535290     -0.65633115
C      -0.06691459     -1.46866597     -1.68638717
C      -0.56672091      0.59152704     -0.23527310
O      -0.61306837      1.47505045     -1.36171387
C       0.80075843      0.62547652      0.42380285
C       0.95510037      0.13192257      1.73032838
C       2.20420031      0.14064654      2.35457235
C       3.31615633      0.64289958      1.68288107
C       3.18000950      1.13733242      0.38791421
C       1.93138537      1.12892643     -0.23720468
H      -3.40264896      0.61161633     -0.20025165
H      -3.40998802     -0.99564689      0.57391170
H      -4.40377740     -0.68650134     -0.84995230
H      -2.38885486     -0.40519227     -2.15122495
H      -1.01644161     -1.49708108      0.22686806
H      -0.40820999     -2.46859731     -1.97963262
H       0.94004236     -1.58747192     -1.27400962
H       0.00674903     -0.85999647     -2.59446838
H      -1.27147901      1.00242143      0.49835742
H      -1.54311797      1.50378072     -1.63829448
H       0.09928784     -0.26318682      2.27347620
H       2.30927067     -0.24396482      3.36563987
H       4.28839907      0.65062110      2.16812087
H       4.04520454      1.53142069     -0.13861680
H       1.84461912      1.51884304     -1.24965268
