44
C[C@H]1C(c2ccc(Cl)cc2)SC(=O)N1C(=O)NC1CCCCC1
C       1.94933822      0.57363673     -1.93137803
C       1.80377746      0.08586013     -0.48251714
C       3.00260693      0.56852713      0.34978665
C       4.26683149     -0.25218301      0.20921306
C       5.46299841      0.37958300     -0.17269240
C       6.64457061     -0.35250505     -0.31897876
C       6.64385897     -1.72394110     -0.08199649
Cl      8.09795029     -2.62466867     -0.26245715
C       5.47209277     -2.36895358      0.30247760
C       4.28999876     -1.63737886      0.44873153
S       2.36748063      0.59689078      2.04255340
C       0.71440625      0.82901345      1.51002295
O      -0.15568963      1.21576571      2.27726178
N       0.58214190      0.58376177      0.15478439
C      -0.64524813      0.20405710     -0.36897952
O      -0.75555574     -0.64638826     -1.24960950
N      -1.73385649      0.85324451      0.16255168
C      -3.09748182      0.47794964     -0.18418905
C      -3.53110624     -0.77791112      0.58477730
C      -4.98384641     -1.14454214      0.29255234
C      -5.92574189      0.02506458      0.56147042
C      -5.50006109      1.27579146     -0.20139772
C      -4.04924673      1.64681980      0.09311698
H       1.14629358      0.20021063     -2.57294045
H       1.92334456      1.66794738     -1.98214537
H       2.89479595      0.23322562     -2.36629302
H       1.73702910     -1.01037135     -0.49615529
H       3.21588423      1.61627239      0.10059855
H       5.48973793      1.45207380     -0.35841589
H       7.56006771      0.15350863     -0.61450874
H       5.47120422     -3.43885722      0.49488415
H       3.39187581     -2.16569344      0.76423411
H      -1.59535773      1.26317065      1.08438013
H      -3.11927989      0.25446221     -1.25888042
H      -2.88471329     -1.62504943      0.32618156
H      -3.40715031     -0.61358393      1.66334321
H      -5.07718366     -1.45481830     -0.75547986
H      -5.27781789     -2.00297705      0.90696332
H      -6.94726851     -0.25093343      0.27674123
H      -5.94079627      0.24125524      1.63683752
H      -5.62178328      1.10610916     -1.27829229
H      -6.15593502      2.11182971      0.06632193
H      -3.96076926      1.96064811      1.14164447
H      -3.76239651      2.51407659     -0.51412317
