43
COC(=O)C1C(OC(=O)c2ccccc2)CC2CCC1N2C
C      -1.01112603      3.93832128     -1.71396215
O      -1.18774953      2.94761560     -0.70026226
C      -0.88244520      1.67946808     -1.10176362
O      -0.51107230      1.37942948     -2.22785350
C      -1.10379505      0.70834987      0.03739246
C      -0.22549842     -0.54588847     -0.12474577
O       1.13551123     -0.18877274      0.20795710
C       2.10419932     -1.00984412     -0.26950114
O       1.92487188     -2.02338038     -0.92580771
C       3.45053018     -0.50996154      0.12080871
C       4.57395569     -1.22240893     -0.32127098
C       5.85881444     -0.79475473      0.01922940
C       6.02877131      0.34559767      0.80301357
C       4.91678016      1.06013997      1.24768314
C       3.62946642      0.63560460      0.90893303
C      -0.70290934     -1.67716284      0.80836434
C      -2.23545579     -1.80425216      0.85079921
C      -2.83298419     -1.96898826     -0.54877653
C      -3.08711032     -0.53876287     -1.02789856
C      -2.60288018      0.35577519      0.12447460
N      -2.74511808     -0.50228492      1.32038345
C      -4.12082991     -0.57584638      1.80931297
H      -1.67896878      3.74407540     -2.55900275
H       0.03256425      3.96984652     -2.04207833
H      -1.26871423      4.91080062     -1.28546349
H      -0.78652676      1.22659189      0.95490148
H      -0.25724884     -0.89115449     -1.16644783
H       4.45166691     -2.11358217     -0.93427285
H       6.72566899     -1.35170896     -0.32784213
H       7.02968565      0.67807915      1.06767784
H       5.05170556      1.94904330      1.85919269
H       2.77719050      1.20710312      1.26746818
H      -0.31736520     -1.50400177      1.82258943
H      -0.26255099     -2.62851225      0.48592609
H      -2.50684221     -2.63198775      1.51556417
H      -2.17231023     -2.51580913     -1.22950666
H      -3.78344778     -2.51369045     -0.50349647
H      -4.16185738     -0.39767837     -1.19507591
H      -2.58485284     -0.33725527     -1.97833724
H      -3.19823033      1.27394490      0.19500009
H      -4.17114203     -1.22756086      2.68850185
H      -4.45618884      0.41532450      2.13382345
H      -4.83616171     -0.94986135      1.06987278
