22
CC[C@H](C)[C@H](N)C(=O)O
C       2.61041412      0.44674313     -0.53519545
C       1.11345255      0.60025904     -0.77644406
C       0.21780294     -0.16990922      0.22544854
C       0.59391026     -1.66107297      0.24583254
C      -1.29541708      0.00482945     -0.09025972
N      -1.69432628      1.44532921     -0.19329061
C      -2.16647193     -0.60598215      1.03358253
O      -2.45052264     -1.78626790      1.15299211
O      -2.58885595      0.35547891      1.89873093
H       3.16453395      1.14199774     -1.17456098
H       2.86656453      0.66703682      0.50576232
H       2.95733362     -0.56177223     -0.77773687
H       0.89640083      1.67220654     -0.71390062
H       0.88271377      0.28570275     -1.80150275
H       0.41290143      0.22949171      1.23044549
H       0.44047926     -2.11910425     -0.73701315
H       0.00408716     -2.21897635      0.97781967
H       1.63972520     -1.80746439      0.53193060
H      -1.56207197     -0.48462680     -1.03396481
H      -1.13961481      1.88289471     -0.93279679
H      -2.65043617      1.47146726     -0.56892054
H      -2.25260277      1.21173901      1.53304162
