18
O=C(O)c1ccc2c(c1)C(=O)OC2=O
O      -3.43944432     -1.01471334      0.70549530
C      -2.72059029     -0.16946799      0.20812026
O      -3.22166215      0.92973973     -0.37828367
C      -1.23814345     -0.20929583      0.16776094
C      -0.58691079     -1.32046419      0.75445568
C       0.80948882     -1.41861270      0.74994785
C       1.51628411     -0.39118873      0.15239891
C       0.89044474      0.68390167     -0.41542542
C      -0.48767771      0.81437454     -0.42955061
C       1.90919054      1.56295718     -0.94410258
O       1.72413298      2.61568990     -1.51811599
O       3.09927604      0.96634611     -0.66445223
C       2.94260304     -0.21346951     -0.00582801
O       3.80986779     -0.97099638      0.37633565
H      -4.19364350      0.83430525     -0.28464849
H      -1.17672773     -2.11251992      1.21700515
H       1.31874949     -2.26740975      1.19761463
H      -0.95523764      1.68082396     -0.88872737
