6
Cl/C=C\Cl
Cl      1.72007210      1.14776738     -0.23626703
C       0.65408378     -0.19248822     -0.23705969
C      -0.67127159     -0.12819806     -0.34946891
Cl     -1.58843638      1.30825616     -0.51687640
H       1.18832986     -1.12808781     -0.13317993
H      -1.30277777     -1.00724945     -0.34446163
