11
ClCC(Cl)CCl
Cl      1.73824221      0.94460020     -1.35349731
C       1.23471905     -0.35175493     -0.23629318
C      -0.28425202     -0.51656767     -0.20932107
Cl     -0.70026755     -1.95446969      0.79020791
C      -1.06410300      0.71094052      0.27274404
Cl     -0.59401264      1.26812831      1.90017628
H       1.64921486     -0.12065757      0.74941156
H       1.71535138     -1.26963468     -0.59076582
H      -0.63245852     -0.76424966     -1.21866795
H      -2.13781901      0.49708455      0.30313574
H      -0.92461477      1.55658062     -0.40713020
