56
Cc1cc(C)cc(OP(=O)(Oc2cc(C)cc(C)c2)Oc2cc(C)cc(C)c2)c1
C       4.34252904     -2.14938466     -2.60144344
C       4.10411551     -1.15650793     -1.50150743
C       5.19250267     -0.57467072     -0.83758601
C       4.99194643      0.37971986      0.16671959
C       6.15901916      0.97865092      0.89228236
C       3.68382241      0.73042162      0.51802373
C       2.59337872      0.16162771     -0.14214319
O       1.36293151      0.58653925      0.27188954
P      -0.04338920      0.01799021     -0.27824278
O      -0.25125274      0.15095116     -1.76177323
O      -0.07606061     -1.49267441      0.28774548
C      -1.13159232     -2.35063278      0.16449851
C      -0.99353324     -3.57773526      0.81542261
C      -2.00790472     -4.53950386      0.74744483
C      -1.86176663     -5.84631277      1.46891854
C      -3.17837043     -4.24263791      0.03978255
C      -3.33057982     -3.00961650     -0.60840894
C      -4.57070207     -2.72046318     -1.40300627
C      -2.29084541     -2.07081972     -0.55489204
O      -1.13220523      0.77869543      0.63796419
C      -1.38390894      2.12070442      0.59936407
C      -2.30519313      2.59109908      1.53645638
C      -2.64744968      3.94731831      1.58152161
C      -3.61692720      4.45191761      2.60863041
C      -2.03064247      4.83337147      0.69051409
C      -1.09652458      4.37262492     -0.24679144
C      -0.47608042      5.32263818     -1.22932667
C      -0.78878531      3.00581526     -0.29679113
C       2.80179584     -0.77258964     -1.15464913
H       3.42121991     -2.67705335     -2.87069177
H       5.07118859     -2.90338690     -2.28433733
H       4.71842419     -1.63717491     -3.49277236
H       6.20513908     -0.86544382     -1.11127736
H       6.40543405      0.37435798      1.77021183
H       7.03823879      1.03193839      0.24183751
H       5.93377852      1.99997105      1.21645404
H       3.50820929      1.45703600      1.30839244
H      -0.08400861     -3.78480811      1.37518443
H      -2.17493907     -5.73548366      2.51180482
H      -0.82176309     -6.18892607      1.44379130
H      -2.47131810     -6.62550950      0.99891939
H      -3.97864335     -4.97891825     -0.01091855
H      -5.44032198     -3.21988183     -0.96391898
H      -4.78615163     -1.64702441     -1.41494975
H      -4.44515869     -3.06779491     -2.43285306
H      -2.41303458     -1.13083206     -1.08585366
H      -2.76099262      1.89117957      2.23312152
H      -3.08404444      4.71870831      3.52658096
H      -4.36828783      3.69044962      2.84328668
H      -4.15252429      5.33383696      2.24134404
H      -2.28139026      5.89217021      0.72440717
H       0.53940804      5.00604874     -1.48958765
H      -0.40300821      6.33038445     -0.80706687
H      -1.07962549      5.36434331     -2.14118874
H      -0.08269720      2.66063368     -1.04690641
H       1.96854183     -1.21535657     -1.69363044
