36
CN(C)C(=O)NC1CCCCCCC1
C       4.26497533      2.03604499     -0.18931094
N       3.39567422      0.91741914     -0.51197385
C       4.07430580     -0.29449057     -0.95090436
C       2.13196505      0.92162669      0.06628769
O       1.74342407      1.80441458      0.82612150
N       1.34060627     -0.14408062     -0.28665057
C      -0.03163824     -0.26241097      0.21867144
C      -0.96242199      0.67827761     -0.57108028
C      -1.96633165      1.45856724      0.27953469
C      -2.72114819      0.69639179      1.36387189
C      -3.64959335     -0.41315007      0.88054909
C      -3.01616264     -1.61522431      0.17991617
C      -1.73862959     -2.15059995      0.82582326
C      -0.44155243     -1.74245976      0.12072328
H       4.80088802      1.81222893      0.73811134
H       4.97973840      2.18750606     -1.00340762
H       3.68952343      2.95682487     -0.05511807
H       4.72424704     -0.05191102     -1.79676272
H       3.38556952     -1.08359757     -1.25632070
H       4.67987683     -0.67142708     -0.12069103
H       1.47921244     -0.44742810     -1.23811751
H       0.00763440      0.03145637      1.27362033
H      -1.48235093      0.13352512     -1.36551933
H      -0.36965916      1.42979565     -1.11081822
H      -1.42281482      2.27543609      0.77278532
H      -2.68783589      1.94265226     -0.39055445
H      -3.34241497      1.42743777      1.89909800
H      -2.02798813      0.31430680      2.11979524
H      -4.19193659     -0.78726851      1.75927566
H      -4.41428055      0.01382960      0.21969485
H      -2.86323128     -1.40589658     -0.88319888
H      -3.76621285     -2.41790149      0.19803587
H      -1.78511785     -3.24704866      0.77592254
H      -1.69215460     -1.90921968      1.89323926
H       0.36421474     -2.34761843      0.55994245
H      -0.48837986     -2.04600820     -0.93384985
