15
C=CCOC(C)=O
C       2.34212573      1.02699119      0.44806438
C       2.06285755     -0.28225494      0.51543156
C       0.72705704     -0.93446328      0.28737966
O      -0.26684273      0.04380921     -0.02585445
C      -1.50098045     -0.48198438     -0.24408494
C      -2.47400877      0.61104386     -0.56401498
O      -1.78842836     -1.66936418     -0.19046258
H       1.58190579      1.76433777      0.20954586
H       3.34835361      1.39050132      0.63238447
H       2.87191871     -0.96797689      0.75956370
H       0.82012778     -1.64365745     -0.54341594
H       0.43942808     -1.47284910      1.19801135
H      -3.46276182      0.17677090     -0.73757513
H      -2.54144732      1.30527760      0.27733527
H      -2.15930483      1.13381836     -1.47068303
