28
CS(=O)(=O)OCCCCOS(C)(=O)=O
C      -5.55713864     -0.52303402     -0.30791007
S      -4.36164475     -0.23596139      0.97351022
O      -4.54190925      1.10445225      1.48876814
O      -4.32048114     -1.39319732      1.84172978
O      -3.03652519     -0.25235116      0.02622585
C      -1.78423274     -0.05108825      0.66479701
C      -0.69171306     -0.10410845     -0.39584907
C       0.69171327      0.10410230      0.20963123
C       1.78423323      0.05108739     -0.85101480
O       3.03652476      0.25234961     -0.21244157
S       4.36164581      0.23596265     -1.15972382
C       5.55713693      0.52303815      0.12169863
O       4.54191412     -1.10445063     -1.67498109
O       4.32048130      1.39319866     -2.02794317
H      -6.54747177     -0.54590962      0.15147300
H      -5.34283179     -1.48250558     -0.78225801
H      -5.50005804      0.29100804     -1.03289016
H      -1.62470923     -0.83494057      1.41351715
H      -1.78062761      0.92371387      1.16499877
H      -0.73740215     -1.06923302     -0.91581036
H      -0.89052492      0.65790049     -1.15987053
H       0.89052575     -0.65790976      0.97364968
H       0.73740145      1.06922502      0.72959611
H       1.78062969     -0.92371287     -1.35122071
H       1.62470930      0.83494281     -1.59973185
H       5.34282862      1.48251036      0.59604391
H       6.54747132      0.54591326     -0.33768150
H       5.50005473     -0.29100222      0.84668040
