37
CC(C)(C)CC(C)(C)c1ccc(O)cc1
C      -2.97482687     -0.32292666      1.02309446
C      -1.98426131      0.56189438      0.24157092
C      -1.07110282      1.29287164      1.23296836
C      -2.82805937      1.63119364     -0.49593329
C      -1.21459192     -0.25053455     -0.85148724
C       0.02071842     -1.16146730     -0.51303938
C       0.36122386     -1.96029379     -1.80455680
C      -0.36226268     -2.22157035      0.54094231
C       1.28500507     -0.35315790     -0.15159849
C       2.04372440     -0.61463924      1.00404795
C       3.19150995      0.12651251      1.30470790
C       3.60659434      1.13585642      0.45063230
O       4.72988018      1.83231081      0.78266084
C       2.89413468      1.41509094     -0.70600231
C       1.74644359      0.67238692     -1.00361686
H      -3.60765613     -0.90648753      0.34533314
H      -3.63986466      0.28862107      1.64483277
H      -2.47392352     -1.01782626      1.69930342
H      -1.65669028      1.92588034      1.91056669
H      -0.51185519      0.59567807      1.86241775
H      -0.36190808      1.94690937      0.71579724
H      -3.51536880      1.16696989     -1.21245158
H      -3.42840223      2.22159489      0.20588171
H      -2.18839904      2.32921682     -1.04817690
H      -1.96127833     -0.88448757     -1.35415153
H      -0.90611157      0.45795305     -1.63182782
H      -0.46733293     -2.61830235     -2.09249614
H       0.56022441     -1.30077405     -2.65698639
H       1.24879133     -2.58902876     -1.66257379
H       0.40801907     -2.99811484      0.62664172
H      -0.48867753     -1.78953981      1.53730162
H      -1.29505132     -2.72945470      0.26993851
H       1.76398665     -1.39802010      1.70256337
H       3.75874862     -0.08932076      2.20568000
H       4.89145564      2.50023594      0.09673622
H       3.21034557      2.19720301     -1.38845813
H       1.21681880      0.90756680     -1.92388338
