8
FCC(F)(F)F
F       1.42388237      0.95796393      0.47205764
C       0.77176478     -0.13306989     -0.01800779
C      -0.72654905      0.07677470     -0.00340961
F      -1.35986912     -1.01642413     -0.49346138
F      -1.09341034      1.12874977     -0.76727908
F      -1.19226566      0.28273138      1.24775992
H       1.12837664     -0.30472657     -1.03729855
H       1.04807039     -0.99199918      0.59963885
