21
CC(CCl)OC(C)CCl
C      -1.95464864      0.58512276     -0.93709142
C      -1.05777068      0.45688544      0.29287144
C      -1.89775880      0.03932179      1.50434221
Cl     -0.94708817      0.16303413      3.01333224
O      -0.08251036     -0.56401159      0.04053713
C       1.11020550     -0.09843224     -0.60576210
C       2.09364540      0.36514598      0.46736246
C       1.71931262     -1.25927721     -1.39887455
Cl      0.73187019     -1.63434863     -2.84123288
H      -2.41812775     -0.37640820     -1.18455197
H      -2.74488757      1.32495120     -0.77606399
H      -1.37654225      0.88975415     -1.81519868
H      -0.57436437      1.42092964      0.49285667
H      -2.77065165      0.68699517      1.62704393
H      -2.22865286     -1.00048900      1.42210777
H       0.88992379      0.73618773     -1.28247648
H       2.29882083     -0.43900648      1.18279556
H       3.03974601      0.69078433      0.02396085
H       1.68221277      1.19994803      1.04347308
H       1.76442832     -2.17323049     -0.79878309
H       2.72283765     -1.01385653     -1.75829965
