61
CC(C)COCC(CN(Cc1ccccc1)c1ccccc1)N1CCCC1
C       5.99979680     -1.50990985      1.22181385
C       4.97865833     -0.87164368      0.28277720
C       5.46321129      0.50750582     -0.17100739
C       3.60726325     -0.78371424      0.96265580
O       2.64760351     -0.30898180      0.01972158
C       1.35372285     -0.15169534      0.61210324
C       0.32727994      0.38342073     -0.42266505
C      -1.07868378      0.45693084      0.24570908
N      -1.56612140     -0.85997846      0.71500230
C      -1.87575739     -1.88017194     -0.31055601
C      -2.98241652     -1.47797764     -1.26450799
C      -4.32914400     -1.63588548     -0.90418644
C      -5.34903460     -1.26479393     -1.78198810
C      -5.03538509     -0.73195932     -3.03054694
C      -3.70249676     -0.56814858     -3.40183125
C      -2.68137121     -0.93901350     -2.52497548
C      -2.44303839     -0.86358856      1.81288254
C      -3.30984778      0.19941371      2.10641632
C      -4.17358697      0.15153301      3.20602327
C      -4.18369555     -0.96297957      4.03899481
C      -3.33105460     -2.02882755      3.77152291
C      -2.47214234     -1.97620372      2.66968470
N       0.61541931      1.69495489     -1.05612766
C       1.16034742      2.72907826     -0.18183526
C       1.51328089      3.82424108     -1.17534139
C       1.89793848      3.08086132     -2.44970411
C       1.53163138      1.62323289     -2.19322438
H       6.97440613     -1.60363537      0.73124121
H       6.13369683     -0.91210201      2.12983263
H       5.67902106     -2.51338331      1.52084579
H       4.88469146     -1.49805170     -0.61348534
H       4.77211466      0.95290931     -0.89348121
H       6.44348852      0.43414563     -0.65400878
H       5.55486297      1.19434987      0.67723664
H       3.29830272     -1.77479712      1.31517845
H       3.64978457     -0.10291666      1.82146327
H       1.03229080     -1.13394720      0.97765075
H       1.42118621      0.52056109      1.47576893
H       0.27827827     -0.34666131     -1.23895292
H      -1.80386428      0.90186654     -0.44691389
H      -0.99457656      1.14521121      1.09817750
H      -0.96771554     -2.10200331     -0.88378516
H      -2.13672334     -2.84482517      0.14467533
H      -4.58922662     -2.04369915      0.07068870
H      -6.38783908     -1.38876498     -1.48801608
H      -5.82969340     -0.44095015     -3.71256770
H      -3.45670050     -0.14759732     -4.37341911
H      -1.64699710     -0.79671078     -2.82967669
H      -3.35150172      1.07321309      1.46186242
H      -4.84138979      0.98573485      3.40393939
H      -4.85382540     -0.99989819      4.89329223
H      -3.32746868     -2.90067200      4.41972113
H      -1.79907033     -2.81125645      2.49171789
H       2.07131587      2.40846582      0.33658326
H       0.43562114      3.08187268      0.55793384
H       2.32440620      4.46310072     -0.81209884
H       0.64223596      4.46266491     -1.36862341
H       1.34527834      3.48676269     -3.30449070
H       2.96780985      3.18283861     -2.66081309
H       1.05404763      1.17559724     -3.07098848
H       2.44137606      1.05687853     -1.97329811
