31
CC(C)Nc1nc(Cl)nc(NC(C)C)n1
C      -3.47110819     -1.09051039     -0.17771374
C      -3.21230405      0.29333292      0.41790790
C      -3.99103844      0.45607273      1.72387506
N      -1.79635204      0.47427579      0.71119068
C      -0.93510455      0.67944984     -0.35352743
N      -1.35213134      1.29000384     -1.44605812
C      -0.40999096      1.42266815     -2.36481653
Cl     -0.88078823      2.20847976     -3.80876701
N       0.85107046      1.02318388     -2.30907074
C       1.15805412      0.41913959     -1.17764544
N       2.46702827     -0.03439496     -1.08266798
C       3.06884947     -0.03007465      0.24653860
C       2.86071351     -1.38777515      0.91752317
C       4.56709452      0.24982389      0.10671781
N       0.30200201      0.23097723     -0.17876080
H      -3.11949048     -1.88443569      0.49082495
H      -4.54106328     -1.24356049     -0.35396475
H      -2.95551204     -1.21416582     -1.13591782
H      -3.57228601      1.06387057     -0.27511333
H      -5.06703031      0.34524938      1.55344901
H      -3.68496784     -0.28793662      2.46809708
H      -3.81768955      1.44724680      2.15752800
H      -1.37558087     -0.22337551      1.31570986
H       2.98801696      0.45171260     -1.80602475
H       2.64442127      0.76313561      0.87577476
H       3.28367606     -2.19843968      0.31329281
H       1.79819772     -1.60764781      1.06134438
H       3.34071290     -1.41211660      1.90161508
H       5.05866215     -0.50446449     -0.51812331
H       4.73711685      1.22676085     -0.35936052
H       5.05682190      0.25430895      1.08614314
