26
O=[N+]([O-])c1c2ccccc2cc2ccccc12
O       0.36050938      3.16332630     -0.92000563
N       0.27795760      2.56912818      0.16325633
O       0.31670183      3.09606610      1.28315734
C       0.12244353      1.13172897      0.11628184
C       1.30164786      0.33662017      0.11545576
C       2.63162287      0.83461969      0.15710726
C       3.73336548     -0.02238451      0.15285212
C       3.53907054     -1.39563811      0.10706120
C       2.24431879     -1.91044991      0.06559723
C       1.12438157     -1.06147449      0.06924747
C      -0.17322778     -1.60112330      0.02697107
C      -1.32524898     -0.79511937      0.02867077
C      -2.60071060     -1.38363634     -0.01465772
C      -3.75525226     -0.60250574     -0.01376402
C      -3.65133545      0.78057487      0.03053030
C      -2.39192826      1.38084470      0.07389499
C      -1.19938671      0.60856464      0.07402743
H       2.82903960      1.90544831      0.19372611
H       4.74054095      0.38611759      0.18535349
H       4.39327515     -2.06801565      0.10351841
H       2.11657834     -2.99100152      0.03006668
H      -0.29047106     -2.68478762     -0.00844104
H      -2.70703561     -2.46651652     -0.04983369
H      -4.73339241     -1.07564687     -0.04765815
H      -4.54772505      1.39605625      0.03150185
H      -2.35573931      2.46920417      0.10784206
