15
ClCc1ccccc1
Cl      2.75396855      0.13546730      1.73090376
C       2.20899192     -0.03519979      0.05070955
C       0.70824769     -0.01560333     -0.02388715
C       0.01768173      1.19591891     -0.17435520
C      -1.37686028      1.21396839     -0.23336870
C      -2.09523399      0.02391034     -0.13621634
C      -1.42100890     -1.18492666      0.02462922
C      -0.02651297     -1.20548316      0.08391339
H       2.60907470     -0.97344436     -0.34748173
H       2.64137734      0.78177656     -0.53624693
H       0.56273211      2.13523903     -0.24070785
H      -1.90324700      2.15784430     -0.34961818
H      -3.18112577      0.03931863     -0.17876838
H      -1.98183147     -2.11215591      0.10961499
H       0.48374634     -2.15663025      0.22087954
