17
C[C@@H](O)[C@H](N)C(=O)O
C      -1.58098532     -0.78977470      1.01372404
C      -0.75266866      0.29005541      0.32628460
O      -0.77315719      1.46928428      1.14955649
C       0.71379366     -0.13831776      0.11164064
N       1.61375041      1.06024179     -0.06617397
C       0.86064119     -1.01926908     -1.13703730
O       0.10183231     -1.91235019     -1.47585732
O       1.98183066     -0.68917372     -1.83390166
H      -2.60555920     -0.43783435      1.17703706
H      -1.62632226     -1.71031100      0.42656092
H      -1.17141291     -1.02412662      2.00251712
H      -1.21607101      0.55754014     -0.63085795
H      -1.70746854      1.70307938      1.29772553
H       1.09839110     -0.70100499      0.96948645
H       1.57994769      1.54218755      0.84372469
H       1.09677508      1.72850654     -0.65230949
H       2.38668299      0.07126732     -1.34070730
