47
O=S(=O)([O-])[O-].OC[P+](CO)(CO)CO.OC[P+](CO)(CO)CO
O      -0.93670899     -1.13778457     -0.04509738
S      -0.00001435      0.00015232      0.00010256
O      -0.75333136      1.26190714     -0.12065845
O       0.95925293     -0.10773771     -1.11468271
O       0.73080176     -0.01653718      1.28033598
O      -2.20281228     -0.65052530      0.83676314
C      -0.88557659     -0.70056614      1.37059676
P       0.17789589     -0.06999876      0.12105530
C       1.83064261     -0.21648094      0.71533359
O       2.66497855      0.25448693     -0.33115919
C       0.01423808     -1.01977990     -1.34928769
O      -1.31187015     -0.83480616     -1.83046944
C      -0.16744647      1.62723134     -0.17082449
O      -1.57999014      1.72519679     -0.31430312
O      -2.39822371     -0.93239442      0.38386206
C      -1.41170540     -1.21308105     -0.59597049
P      -0.01730931     -0.21235311     -0.21460607
C       1.18120069     -0.44878444     -1.48188788
O       2.33654485      0.27310746     -1.09279824
C      -0.51840474      1.47215531     -0.15309073
O       0.67382801      2.24572407     -0.22114294
C       0.66214571     -0.73256429      1.32121893
O      -0.38048535     -0.61119189      2.28265180
H      -2.36399273      0.29717887      0.61949102
H      -0.65528546     -1.74244626      1.61393420
H      -0.85191076     -0.11402575      2.29275319
H       2.00112171      0.40055028      1.60457021
H       2.08981338     -1.25618492      0.94148322
H       3.58398146      0.06117931     -0.07476319
H       0.70144496     -0.68752616     -2.13075760
H       0.17438803     -2.08776919     -1.16839621
H      -1.91467900     -1.01849353     -1.07539341
H       0.32317253      2.01619051     -1.06997154
H       0.12599903      2.25263228      0.67919793
H      -1.75411265      1.76395669     -1.27985268
H      -1.97280660     -1.07000497      1.25721965
H      -1.18287368     -2.28230718     -0.57649571
H      -1.82800846     -0.96738724     -1.57626368
H       0.84341379     -0.08012696     -2.45576732
H       1.46018734     -1.49833634     -1.59772273
H       2.02670899      1.17910141     -0.85998156
H      -1.03336178      1.70512440      0.78077884
H      -1.15970557      1.74839634     -0.99346125
H       0.43388702      3.14170690      0.08138082
H       0.96283159     -1.78396648      1.28512963
H       1.52207591     -0.13624007      1.63783966
H      -0.19993929      0.20342256      2.78910719
