20
Cc1cccc(C)c1N
C      -2.25447090     -1.22600154      0.47638161
C      -1.18900373     -0.19443979      0.21889182
C      -1.56831962      1.15435047      0.12399384
C      -0.62497214      2.13986818     -0.14672507
C       0.70548814      1.78628713     -0.34495159
C       1.11179404      0.44499791     -0.25561910
C       2.55623252      0.11098896     -0.51576612
C       0.17122559     -0.55108081      0.08761347
N       0.54809356     -1.90852103      0.08571478
H      -2.09799213     -1.69541893      1.45285327
H      -2.24207655     -1.99214123     -0.30561725
H      -3.25524712     -0.78086662      0.47868038
H      -2.60952776      1.44282945      0.24861844
H      -0.92983384      3.17994541     -0.22335233
H       1.42666566      2.56456814     -0.58379786
H       3.02592918     -0.27138136      0.39610697
H       2.63873651     -0.63566402     -1.31222618
H       3.12280717      0.99172187     -0.83671115
H       1.52406281     -2.05995667      0.31465141
H      -0.05959140     -2.50008553      0.64126067
