26
CCN(CC)c1ccccc1
C      -1.79749953      2.16997536      0.18883828
C      -1.58857833      1.05087223     -0.82147729
N      -0.74760952     -0.01499994     -0.26204415
C      -1.46337865     -1.11215951      0.40142395
C      -1.75995448     -2.24139156     -0.57512717
C       0.64093827      0.01287594     -0.35489994
C       1.44506743     -1.06547233      0.05818844
C       2.84461670     -1.04379826     -0.03315225
C       3.49296794      0.07012461     -0.54563746
C       2.73819084      1.15588520     -0.96427742
C       1.33919851      1.12138627     -0.86845398
H      -2.27422013      1.79331736      1.09987149
H      -0.85167322      2.63707833      0.47920022
H      -2.44269825      2.94575328     -0.23516938
H      -1.18239689      1.44098163     -1.76138914
H      -2.57082558      0.64191240     -1.09122136
H      -2.41655980     -0.74208512      0.80055643
H      -0.92048653     -1.48322590      1.27788219
H      -0.84326149     -2.67105850     -0.99003019
H      -2.31144642     -3.04123129     -0.07113447
H      -2.36834543     -1.88651234     -1.41360078
H       1.00228185     -1.97182713      0.45818558
H       3.41932942     -1.90468791      0.29740695
H       4.57615122      0.09186634     -0.61808237
H       3.22893464      2.03816181     -1.36609118
H       0.81125741      2.00825904     -1.20352091
