48
COC(=O)C1=C(C)NC(C)=C(C(=O)OC(C)C)C1c1cccc2nonc12
C      -5.09506090      0.03067936     -0.10543659
O      -3.76211360      0.07333134     -0.61420277
C      -3.14932464     -1.13373280     -0.66131283
O      -3.64182313     -2.20743764     -0.35273345
C      -1.76292986     -0.95751398     -1.14534511
C      -1.24769348     -1.74956507     -2.11343720
C      -2.01265299     -2.83163021     -2.83315663
N       0.06439452     -1.56183559     -2.52524205
C       0.88269961     -0.53200026     -2.08687992
C       2.20947388     -0.39787230     -2.78804780
C       0.44355952      0.29150757     -1.10991508
C       1.23935773      1.42659946     -0.60865380
O       0.87757416      2.58900995     -0.67669597
O       2.36651463      0.95607144     -0.01916048
C       3.20624193      1.94306168      0.60582047
C       3.98397048      1.23468259      1.70789486
C       4.15232021      2.53541516     -0.43166520
C      -0.92969137      0.13005382     -0.47234271
C      -0.80731123     -0.12978158      1.02182689
C      -0.11956811     -1.25939443      1.54774132
C       0.01707209     -1.53293745      2.93466350
C      -0.52239427     -0.70694837      3.93457790
C      -1.21489748      0.41639515      3.45056012
N      -1.83827569      1.38029113      4.13822078
O      -2.35680222      2.24388757      3.18963174
N      -2.06868196      1.82848395      1.90253919
C      -1.35690382      0.70094778      2.02701174
H      -5.10206274     -0.35437622      0.91921451
H      -5.73270812     -0.57867328     -0.75341571
H      -5.48654404      1.05157805     -0.09414241
H      -1.77162900     -2.82125292     -3.90228761
H      -1.74132255     -3.81334281     -2.43205936
H      -3.09699817     -2.71235684     -2.76340449
H       0.39330428     -2.12174931     -3.30849233
H       2.70362219      0.55869686     -2.59866188
H       2.07339679     -0.47121464     -3.87298897
H       2.88303610     -1.20122987     -2.47249553
H       2.59821868      2.73294628      1.06359553
H       3.29450827      0.79228396      2.43550270
H       4.64929804      1.92630070      2.23347576
H       4.58179601      0.41128038      1.30127037
H       4.74094139      1.74991642     -0.91846628
H       4.83744569      3.25724771      0.02326426
H       3.59254173      3.04331916     -1.22384285
H      -1.45312080      1.08347096     -0.62838985
H       0.33493010     -1.96775526      0.85016246
H       0.56390834     -2.42761139      3.23497237
H      -0.41961621     -0.91724620      4.99092839
