44
CCCCOC(=O)CCCCC(=O)OCCCC
C      -8.08304630      0.56367412      1.26132319
C      -7.36010312     -0.39994170      0.33392263
C      -5.90518705     -0.59340388      0.75225773
C      -5.17874468     -1.56218587     -0.17593308
O      -3.83013959     -1.75937409      0.27739511
C      -2.91369017     -0.85719082     -0.17540216
O      -3.15532858      0.08505727     -0.91575369
C      -1.55392526     -1.20368271      0.38485999
C      -0.47965102     -0.22213726     -0.08111531
C       0.89059945     -0.58199687      0.49217984
C       1.96473502      0.39967363      0.02632508
C       3.32431427      0.05289243      0.58610593
O       3.56789753     -0.88701110      1.32899158
O       4.24204279      0.95344770      0.13367678
C       5.57748501      0.71831900      0.59661356
C       6.50967692      1.76636715     -0.00692015
C       6.52336479      1.79635615     -1.53835365
C       7.02961465      0.50646978     -2.16476545
H      -8.08439115      0.19097858      2.29061616
H      -9.12303503      0.68737793      0.94346828
H      -7.60578281      1.54881777      1.25290685
H      -7.88114437     -1.36436774      0.34052760
H      -7.40438713     -0.01397299     -0.69113654
H      -5.85231393     -0.97062029      1.78120044
H      -5.38524594      0.37217092      0.76083523
H      -5.66667579     -2.54269782     -0.15117775
H      -5.19874942     -1.22182158     -1.21818160
H      -1.29709477     -2.21706269      0.05673305
H      -1.62061821     -1.18731282      1.47844431
H      -0.75233626      0.79576032      0.22459592
H      -0.43249155     -0.21979141     -1.17733166
H       0.84343071     -0.58444649      1.58839479
H       1.16336977     -1.59984513      0.18639405
H       2.03130661      0.38381376     -1.06728159
H       1.70816427      1.41299068      0.35484333
H       5.59953465      0.80657705      1.68927412
H       5.89915902     -0.29111995      0.31741888
H       7.52675756      1.60406533      0.36840306
H       6.19158984      2.75750827      0.33985988
H       7.17216031      2.61927461     -1.86172892
H       5.52138690      2.01877884     -1.92277295
H       6.34680914     -0.32659580     -1.97368515
H       8.01793636      0.24184567     -1.77595178
H       7.11274655      0.62359552     -3.25007592
