50
CC(=O)Oc1ccc2c3c1O[C@H]1[C@@H](OC(C)=O)C=C[C@H]4[C@@H](C2)N(C)CC[C@]314
C       4.63803509      2.84058975      0.00435573
C       3.54893776      2.00517188     -0.60130931
O       2.75724144      2.41857567     -1.43812230
O       3.63155528      0.72442623     -0.07299395
C       2.59278550     -0.10011527     -0.48562285
C       2.82528016     -1.06272683     -1.47465389
C       1.78092003     -1.90745081     -1.90002075
C       0.52179369     -1.82855054     -1.29812561
C       0.36696882     -0.92085529     -0.26197398
C       1.34943661     -0.03064448      0.10402923
O       0.91526367      0.87996419      1.02797064
C      -0.55380604      0.73945379      1.01194105
C      -1.23562875      1.86546113      0.17066490
O      -0.36559958      2.98642310     -0.04857803
C      -0.13984992      3.76464064      1.04073916
C       0.83870484      4.84765858      0.70651710
O      -0.65093508      3.61081861      2.14185427
C      -1.76693047      1.43637309     -1.17655266
C      -2.17869929      0.18488732     -1.43368144
C      -2.08862223     -0.89289416     -0.38002024
C      -1.98989107     -2.35250058     -0.93332878
C      -0.68721449     -2.59013066     -1.77946846
N      -2.08504933     -3.36064248      0.16006891
C      -3.43709981     -3.47768896      0.70441505
C      -1.08930908     -3.15447364      1.22292519
C      -0.94703092     -1.70216472      1.70444983
C      -0.87528440     -0.69612601      0.53765866
H       4.55836184      3.86538126     -0.36966554
H       4.52822174      2.86102221      1.09164084
H       5.61415530      2.43870739     -0.27798837
H       3.80252773     -1.13646158     -1.94292021
H       1.95751964     -2.60863195     -2.71227610
H      -0.87097029      0.87287688      2.05429056
H      -2.12478239      2.21467240      0.71604730
H       0.88477124      5.56136990      1.53403465
H       1.83022264      4.41606543      0.55513168
H       0.51160366      5.38382374     -0.18814499
H      -1.86359998      2.20276313     -1.94145155
H      -2.60795807     -0.05755226     -2.40226672
H      -3.01322343     -0.79812641      0.20487756
H      -2.82860799     -2.53578532     -1.61920108
H      -0.89174448     -2.26049118     -2.80685616
H      -0.45674860     -3.66147642     -1.83111910
H      -4.16248807     -3.66457346     -0.09503548
H      -3.75699250     -2.59095838      1.26005813
H      -3.49843225     -4.33751076      1.38118221
H      -0.11765833     -3.51092459      0.85986829
H      -1.30738953     -3.80086035      2.08296240
H      -0.05688097     -1.63092320      2.34301507
H      -1.80587936     -1.44988606      2.34005850
