21
OCC(CO)(CO)CO
O      -1.30759311     -0.46032968      1.81825036
C       0.04794240     -0.50397032      1.37011629
C       0.20565056      0.04795390     -0.06591231
C      -0.67514846     -0.77518623     -1.03302231
O      -2.06642551     -0.60302716     -0.75852162
C      -0.19762096      1.53897226     -0.11453441
O      -1.52649611      1.75844963      0.35136962
C       1.68137644     -0.05823801     -0.49866766
O       2.11628282     -1.41070534     -0.50179532
H      -1.57435846      0.48485269      1.78113544
H       0.36835745     -1.54950094      1.42823921
H       0.65622080      0.06648967      2.08108027
H      -0.51050177     -0.45650345     -2.06813383
H      -0.45068494     -1.84609657     -0.97776583
H      -2.19937508     -0.96348307      0.14716091
H       0.46722275      2.13787830      0.51765984
H      -0.12638651      1.93575783     -1.13366116
H      -2.10747543      1.22637687     -0.23877233
H       2.32854130      0.50449373      0.18362061
H       1.82050963      0.34410535     -1.50852320
H       3.04996219     -1.41828947     -0.77932256
