25
O=S(=O)(c1ccc(Cl)cc1)c1ccc(Cl)cc1
O       0.02726451     -2.53675307     -1.22221870
S      -0.09477336     -1.74469073     -0.01202973
O      -0.29496110     -2.39123203      1.27199593
C       1.37054068     -0.74267704      0.12019977
C       2.11922810     -0.45808199     -1.02661176
C       3.27536610      0.31742025     -0.91622192
C       3.67786645      0.79140300      0.33338849
Cl      5.10229822      1.74685536      0.46434912
C       2.93758712      0.49279499      1.47837628
C       1.78034152     -0.28210188      1.37590847
C      -1.44396305     -0.60899350     -0.25397584
C      -1.80860514     -0.23748785     -1.55239408
C      -2.87590936      0.64336921     -1.73983862
C      -3.57319143      1.13556394     -0.63542988
Cl     -4.88676675      2.22092683     -0.87112839
C      -3.21728867      0.75096550      0.65825107
C      -2.15110890     -0.12956297      0.85363139
H       1.81831632     -0.83745856     -2.00102890
H       3.86132589      0.54298224     -1.80406112
H       3.26108351      0.85459191      2.45148025
H       1.21532904     -0.52470616      2.27359779
H      -1.27813065     -0.63011533     -2.41748524
H      -3.16384839      0.93672909     -2.74657088
H      -3.77048436      1.12799285      1.51517014
H      -1.88751630     -0.43773406      1.86334053
