25
OCCN(CCO)CCO
O      -1.19855403      2.53617967      1.79962512
C      -0.39999916      2.77377574      0.64165087
C       0.54104592      1.58150086      0.40296903
N      -0.18096378      0.28738272      0.46171854
C       0.75702189     -0.82353444      0.73769487
C       1.82626376     -1.13777765     -0.32164743
O       2.69999232     -2.15264251      0.17034933
C      -1.00334843      0.07070501     -0.75187014
C      -1.87295506     -1.19989086     -0.72544170
O      -1.13385874     -2.33065090     -1.17591982
H      -1.30961406      1.56338847      1.82932241
H       0.17648965      3.68954113      0.80396247
H      -1.06759946      2.94111743     -0.20838292
H       1.28041201      1.60544836      1.21401455
H       1.08408992      1.70933234     -0.54053156
H       0.19297385     -1.73820300      0.95834700
H       1.26605010     -0.61872684      1.69007691
H       2.43631534     -0.25695957     -0.54194149
H       1.37670054     -1.49592845     -1.25152422
H       3.28115243     -2.40340511     -0.56781034
H      -1.70309918      0.90888156     -0.83963381
H      -0.37433275      0.07336398     -1.65026830
H      -2.72287008     -1.07480788     -1.40450018
H      -2.26363155     -1.39510911      0.27904856
H      -1.68768145     -3.11298095     -1.00930778
