16
O=C(O)/C=C/C=C/C(=O)O
O      -3.54255762     -0.52891375     -0.45654271
C      -3.04776975      0.02045805      0.50826550
O      -3.78688297      0.48765835      1.52636017
C      -1.62431068      0.27844024      0.75842025
C      -0.70879916     -0.11060035     -0.14047088
C       0.70879987      0.11060027      0.04044224
C       1.62431056     -0.27843959     -0.85845008
C       3.04777012     -0.02045833     -0.60829737
O       3.54255998      0.52891135      0.35651101
O       3.78688110     -0.48765694     -1.62639441
H      -4.70682266      0.27039007      1.26817555
H      -1.36690211      0.78436075      1.68069244
H      -1.02793472     -0.61631111     -1.05182757
H       1.02793602      0.61631002      0.95179935
H       1.36690057     -0.78435890     -1.78072271
H       4.70682145     -0.27039013     -1.36821099
