10
Nc1nccs1
N      -2.04802939     -0.24513518     -0.14459198
C      -0.71076265     -0.13645486     -0.07478166
N      -0.04263509      0.84087023     -0.63560166
C       1.30772845      0.68660200     -0.39092145
C       1.65213225     -0.40823476      0.37043579
S       0.23707523     -1.27645991      0.79405730
H      -2.52557453      0.60832413     -0.41234395
H      -2.50779341     -0.75134468      0.60181964
H       2.00428317      1.41059636     -0.79538282
H       2.63357597     -0.72876334      0.68731078
