36
C1CNCCN1.O=C(O)CCCCC(=O)O
C      -1.31221279     -0.29842608     -0.55339192
C      -0.30324397     -1.39456056     -0.14842018
N       1.09939128     -0.97173853     -0.30686136
C       1.31221279      0.29842619      0.40913882
C       0.30324382      1.39456061      0.00416725
N      -1.09939139      0.97173853      0.16260855
O      -2.70201318     -1.77612686     -0.97243025
C      -2.58341949     -0.97386253     -0.06198407
O      -3.40545365      0.08781878      0.03203922
C      -1.56218685     -1.02190908      1.03860927
C      -0.48630735      0.04873789      0.87951489
C       0.43600904     -0.22382901     -0.31566491
C       1.53595295      0.82885996     -0.45780273
C       2.61400036      0.69787970      0.58549627
O       2.76271510     -0.20221140      1.39328583
O       3.48207509      1.72780261      0.54044368
H      -2.32981361     -0.64997767     -0.35039980
H      -1.25102098     -0.11685769     -1.63360735
H      -0.47388913     -1.69083553      0.89401845
H      -0.47258056     -2.28691043     -0.76107239
H       1.26072948     -0.79861763     -1.29998752
H       2.32981361      0.64997789      0.20614638
H       1.25102126      0.11685774      1.48935429
H       0.47258035      2.28691052      0.61681932
H       0.47388897      1.69083566     -1.03827135
H      -1.26072914      0.79861698      1.15573474
H      -4.01069182     -0.01223221     -0.73251868
H      -2.08818629     -0.89550026      1.99209082
H      -1.11788365     -2.02350344      1.05864770
H       0.10475564      0.07975559      1.80180677
H      -0.95029974      1.03585949      0.76501473
H      -0.15880400     -0.22237726     -1.23682133
H       0.87930417     -1.22266934     -0.22247048
H       2.01576961      0.71114338     -1.43599918
H       1.10342597      1.83359711     -0.39907382
H       4.13123810      1.52276688      1.24575646
