50
CC(C)C(=O)OCC(C)(C)C(OC(=O)C(C)C)C(C)C
C       5.26364236      0.97960685     -0.76309309
C       5.12951494     -0.04194984      0.36048555
C       5.08076337      0.62502195      1.73047513
C       3.91160356     -0.91781076      0.14606258
O       3.96476471     -2.12830222     -0.02792784
O       2.76532082     -0.18448548      0.17077136
C       1.56346172     -0.94747812     -0.02013746
C       0.32502786     -0.02163478      0.02530657
C       0.32407380      0.74509387      1.37546166
C       0.43067134      1.05582983     -1.07564701
C      -0.99616492     -0.86716568     -0.04899241
O      -2.11648117      0.03347649     -0.23451452
C      -3.03869232      0.12005574      0.76580719
O      -2.99896056     -0.49806838      1.81967283
C      -4.11843213      1.11324656      0.37756973
C      -3.60337097      2.53412439      0.57313370
C      -5.38893871      0.87476830      1.18883027
C      -1.09832893     -1.99682904     -1.11485377
C      -1.05996933     -1.51837512     -2.56631933
C      -2.39067668     -2.80417093     -0.90478837
H       5.26766270      0.48444064     -1.74019312
H       6.19639778      1.54446228     -0.66418741
H       4.43380237      1.69490962     -0.75997156
H       6.00527077     -0.70250505      0.33103762
H       4.24660725      1.33117095      1.80671937
H       4.95348645     -0.12151001      2.52193666
H       6.00707561      1.17470572      1.92714402
H       1.62960141     -1.44771947     -0.99285779
H       1.49377779     -1.70564415      0.77000081
H       0.27832575      0.05102988      2.22223115
H      -0.53221521      1.42383180      1.45105178
H       1.22673163      1.35407749      1.49884747
H       0.57876410      0.62465351     -2.06658523
H      -0.46096170      1.69015918     -1.11277701
H       1.28447634      1.72067102     -0.89735031
H      -1.08202598     -1.37987787      0.91922117
H      -4.36295338      0.94874005     -0.67924034
H      -4.36506364      3.26852944      0.29175958
H      -2.71534071      2.71816178     -0.04101425
H      -3.32221313      2.71429344      1.61675203
H      -5.74362495     -0.15401584      1.06253462
H      -5.21801258      1.03657550      2.25896475
H      -6.18828716      1.55042764      0.86710800
H      -0.26963210     -2.69912332     -0.96578974
H      -1.74850496     -0.68588688     -2.74116226
H      -0.05241223     -1.20845592     -2.85164266
H      -1.33578806     -2.32785130     -3.25176899
H      -2.46034810     -3.16988376      0.12507730
H      -2.41111238     -3.67802509     -1.56531491
H      -3.28231243     -2.20529493     -1.11783350
