21
Cc1ncc([N+](=O)[O-])n1CCO
C      -1.17071477     -2.12220789      0.46781014
C      -1.32605571     -0.66847215      0.19342946
N      -2.40847026      0.03538451      0.47008543
C      -2.14548514      1.31485464      0.06467411
C      -0.88281219      1.39395549     -0.46318943
N      -0.23548517      2.54829052     -0.98298708
O      -0.94657155      3.54010921     -1.17816932
O       0.98177988      2.48454913     -1.18885065
N      -0.35439824      0.12676985     -0.39600388
C       0.92511139     -0.34841071     -0.90513651
C       2.07308124     -0.14470785      0.08057486
O       2.03473837     -1.15039765      1.08890071
H      -0.32920336     -2.30900705      1.13936219
H      -1.02033111     -2.68100022     -0.46054362
H      -2.07263656     -2.51444706      0.94901658
H      -2.87728899      2.10498378      0.17953419
H       0.81518588     -1.40975850     -1.15096653
H       1.11607721      0.16864903     -1.85045402
H       3.02910643     -0.24227426     -0.44325649
H       2.03522341      0.83312161      0.56935799
H       2.75914921     -0.95998443      1.71187319
