24
O=C(NCCO[N+](=O)[O-])c1cccnc1
O      -0.05919994     -1.94506995      0.67473810
C      -0.33672023     -0.95515404      0.00757105
N       0.56898029     -0.35045034     -0.83974898
C       1.91592727     -0.87672657     -0.99614444
C       2.82539184     -0.53252171      0.18543944
O       3.00867133      0.88349705      0.20034271
N       3.83419043      1.31266075      1.26403644
O       3.95367476      2.53581519      1.30552256
O       4.32963767      0.44467466      1.98321656
C      -1.69458623     -0.36729098      0.07231372
C      -1.97464899      0.96707955     -0.23254464
C      -3.28728516      1.42858667     -0.13618527
C      -4.27298862      0.54080346      0.26642485
N      -4.03436330     -0.75062963      0.57896176
C      -2.74857210     -1.17422749      0.48427538
H       0.26918145      0.38159539     -1.46945204
H       1.85222931     -1.96356337     -1.11575914
H       2.31346049     -0.44376095     -1.92019156
H       3.79095267     -1.03044997      0.03577696
H       2.37399770     -0.86826877      1.12631051
H      -1.19215786      1.66360501     -0.51475077
H      -3.53589662      2.46053759     -0.36031823
H      -5.30916684      0.85550556      0.35708033
H      -2.59070930     -2.21624711      0.75324734
