15
O=C1OC(=O)c2c(Cl)c(Cl)c(Cl)c(Cl)c21
O      -2.86650768      1.59723811      0.17594074
C      -2.18152537      0.60119497      0.09917288
O      -2.62934281     -0.67723710      0.04029798
C      -1.62166325     -1.58077841     -0.04088238
O      -1.74226580     -2.78431546     -0.10529992
C      -0.39308997     -0.80857390     -0.03395328
C       0.92909413     -1.22276518     -0.09687559
Cl      1.31702609     -2.90209228     -0.20338318
C       1.93128664     -0.23356207     -0.07091640
Cl      3.60665211     -0.70031851     -0.14736480
C       1.57941299      1.13780947      0.01710817
Cl      2.82238463      2.35623907      0.04882778
C       0.22531421      1.52010500      0.07918182
Cl     -0.24320867      3.17867428      0.18692572
C      -0.73356724      0.51838200      0.05122047
