16
C1=CCCCC1
C       0.47559305      1.42489719     -0.43011445
C       1.41033366      0.46462974     -0.48641266
C       1.14677859     -0.96064691     -0.09610245
C      -0.16726929     -1.14030278      0.66863980
C      -1.29228083     -0.32203318      0.04067506
C      -0.94052709      1.16729227     -0.00413208
H       0.73451471      2.44409639     -0.70599232
H       2.41403529      0.71046440     -0.82414614
H       1.13172839     -1.57105599     -1.00686423
H       1.97294892     -1.32759204      0.52339352
H      -0.03028163     -0.82635007      1.71144218
H      -0.43935444     -2.20162062      0.68985344
H      -1.47859272     -0.68540459     -0.97815651
H      -2.22174771     -0.46456153      0.60339467
H      -1.62610740      1.67509565     -0.69195245
H      -1.08977149      1.61309207      0.98647460
