60
CCCCCCOC(=O)c1ccccc1C(=O)c1ccc(N(CC)CC)cc1O
C       6.56336620     -0.89302098     -0.73572035
C       6.07987693     -2.30636411     -0.44919916
C       4.63866486     -2.56166581     -0.89350111
C       3.61014606     -1.73925013     -0.11402063
C       2.18010719     -2.11871912     -0.51227544
C       1.13733325     -1.34464844      0.28869707
O       1.24813486      0.05401571     -0.02149997
C       1.38441898      0.90332449      1.01919926
O       1.46841976      0.61318961      2.20163092
C       1.50380786      2.29505151      0.52610839
C       2.38755119      3.13345577      1.22754326
C       2.60126861      4.44952522      0.81059195
C       1.93631135      4.94139538     -0.30964611
C       1.04218322      4.12425086     -1.00357566
C       0.80545755      2.80791695     -0.57710881
C      -0.19597838      2.04361147     -1.34936037
O      -0.05277520      1.95357360     -2.56812555
C      -1.37854144      1.40961623     -0.70936076
C      -1.84729726      1.82298617      0.53855885
C      -2.94579263      1.17779472      1.12117704
C      -3.61225519      0.11191630      0.48959881
N      -4.69808729     -0.50651367      1.12320590
C      -4.44587714     -1.00939416      2.48869713
C      -3.56763929     -2.25582289      2.48713229
C      -5.67526373     -1.27744295      0.33725102
C      -6.52456929     -0.36684255     -0.54048344
C      -3.14699779     -0.25899072     -0.78008407
C      -2.05352338      0.37930461     -1.37200388
O      -1.68769648     -0.07160653     -2.61533686
H       6.01460140     -0.15220284     -0.14528478
H       6.44740529     -0.64689844     -1.79677937
H       7.62396186     -0.80235321     -0.47922606
H       6.73515945     -3.01103354     -0.97567339
H       6.18260205     -2.51729956      0.62171916
H       4.42325497     -3.62766251     -0.75687965
H       4.54245421     -2.35469483     -1.96565049
H       3.77003409     -0.67143177     -0.30257810
H       3.74616919     -1.90455030      0.96182046
H       2.02354491     -3.19244843     -0.35770034
H       2.04338445     -1.91251998     -1.58077922
H       0.13463777     -1.66476123     -0.01332255
H       1.24584684     -1.55530826      1.35844944
H       2.92607754      2.75654015      2.09660709
H       3.29577231      5.08691070      1.35477318
H       2.11180678      5.96155817     -0.64393730
H       0.52399627      4.51691115     -1.87655430
H      -1.39376304      2.64956798      1.07710635
H      -3.30332905      1.54508675      2.08105636
H      -3.99634055     -0.24040934      3.12777449
H      -5.40504591     -1.24996382      2.96437632
H      -3.42632416     -2.61797144      3.51044748
H      -2.57830109     -2.05209714      2.06190973
H      -4.02478389     -3.06067005      1.90390308
H      -6.36286629     -1.79568875      1.01796773
H      -5.19394644     -2.06535304     -0.25249749
H      -5.92852331      0.13646948     -1.30740737
H      -7.29877176     -0.95009234     -1.05016452
H      -7.01988859      0.40417214      0.05942592
H      -3.61263333     -1.06517739     -1.33794875
H      -1.00094538      0.54272517     -2.96327089
