41
CC(C)NCC1CCc2cc(CO)c([N+](=O)[O-])cc2N1
C       4.71837886      2.35918227     -0.22394498
C       4.39620721      0.88192715      0.01970423
C       5.22625507      0.36599258      1.19627034
N       2.95389608      0.75740720      0.27974234
C       2.47246218     -0.63022041      0.13056835
C       0.96892699     -0.76330343      0.49402025
C       0.46897767     -2.16685934      0.15061927
C      -0.99015352     -2.30917613      0.56376589
C      -1.81899591     -1.13966301      0.09726204
C      -3.21996277     -1.27154982      0.04847370
C      -4.04750739     -0.21067188     -0.35280020
C      -5.54644633     -0.38301263     -0.40760661
O      -5.97514286     -1.46027861      0.41902332
C      -3.40874718      0.98262896     -0.73434052
N      -4.17439183      2.12147851     -1.23032577
O      -3.87571922      3.24126953     -0.79315619
O      -5.06686672      1.89562193     -2.05941078
C      -2.01405235      1.13369239     -0.67049661
C      -1.21050650      0.08433793     -0.22096147
N       0.18379971      0.24287690     -0.24249155
H       4.16258809      2.74703644     -1.08505714
H       5.78520299      2.49272546     -0.43416753
H       4.46750686      2.97528927      0.64708981
H       4.66628317      0.32885702     -0.88849428
H       5.09697430     -0.71036267      1.34444053
H       4.95465030      0.87198009      2.12963809
H       6.29346154      0.54137761      1.02064970
H       2.45295203      1.31129697     -0.41780686
H       2.62699433     -0.94867621     -0.90835036
H       3.03749488     -1.31062050      0.77637407
H       0.85479171     -0.57828833      1.57122699
H       0.56181712     -2.34491460     -0.92928034
H       1.07057566     -2.93039190      0.65716073
H      -1.06146934     -2.36876714      1.65681681
H      -1.38773989     -3.24380228      0.15099762
H      -3.66902128     -2.22364818      0.33265992
H      -6.05230693      0.51512791     -0.04019542
H      -5.85727209     -0.59742832     -1.43497333
H      -6.94195199     -1.51074518      0.32663021
H      -1.55009904      2.06715189     -0.98258689
H       0.44815642      1.18512255      0.04331262
