48
CCCN1C[C@H](CSC)C[C@@H]2c3cccc4[nH]cc(c34)C[C@H]21
C      -1.17484947      4.97504673     -0.74601083
C      -1.55586905      3.50421605     -0.64096852
C      -0.34185522      2.63935490     -0.26383983
N      -0.56526848      1.17784996     -0.34288177
C      -1.69457675      0.76578375      0.51682629
C      -2.02345291     -0.72977229      0.38863182
C      -3.18019128     -1.16217909      1.30923873
S      -4.78602784     -0.34402631      1.01015267
C      -5.14032260     -0.96272128     -0.65346990
C      -0.78733190     -1.57655795      0.71201821
C       0.40895110     -1.15917130     -0.15017965
C       1.65906565     -1.97183177      0.15045945
C       1.72016478     -3.31142263      0.56023151
C       2.95345633     -3.95250763      0.76093933
C       4.17582910     -3.29633701      0.54684610
C       4.10277324     -1.97270119      0.11471521
N       5.06619309     -1.04116406     -0.20648183
C       4.47584660      0.14418649     -0.59572104
C       3.11282212     -0.02656425     -0.51967764
C       2.88827590     -1.34368090     -0.07775717
C       1.94939479      0.86402679     -0.80035777
C       0.66997172      0.40406036      0.00836585
H      -0.77461784      5.34462614      0.20349242
H      -0.41930446      5.13129050     -1.52257017
H      -2.05299152      5.57605038     -1.00228182
H      -1.96971693      3.17259863     -1.60048962
H      -2.34591019      3.41635494      0.11220497
H       0.00450098      2.91805795      0.73981927
H       0.44665903      2.91453410     -0.97166298
H      -1.48895391      1.02035018      1.56515451
H      -2.58984004      1.31567695      0.21635857
H      -2.30058586     -0.93868280     -0.65302577
H      -3.34225345     -2.24338225      1.23260802
H      -2.91404012     -0.95965240      2.35316882
H      -4.46211380     -0.51576748     -1.38407066
H      -6.16272801     -0.68614999     -0.92500495
H      -5.05723636     -2.05207951     -0.68514141
H      -0.53248337     -1.48167094      1.77633039
H      -1.03262387     -2.63134507      0.53856818
H       0.15984220     -1.35336903     -1.20385821
H       0.81096221     -3.88265205      0.72541462
H       2.96260543     -4.99148414      1.08530255
H       5.12218072     -3.80197715      0.70032310
H       6.06169439     -1.20845391     -0.16716413
H       5.08174505      0.99098714     -0.88830701
H       2.23182499      1.88510918     -0.52160537
H       1.73410527      0.84769261     -1.87570045
H       0.89628052      0.58945063      1.07105792
