17
COP(=O)(OC)OC
C      -1.83065333     -1.55853775      0.87569084
O      -1.27753277     -0.25983047      0.83010031
P      -0.02661411     -0.04845414     -0.16156560
O      -0.25980523     -0.47300569     -1.57717719
O       1.17548482     -0.81075992      0.59124676
C       2.43116766     -0.79596636     -0.05505300
O       0.34170423      1.50691287      0.03350800
C      -0.55330504      2.44045398     -0.53404883
H      -2.24038790     -1.82721372     -0.10166629
H      -2.63808708     -1.57056108      1.61208701
H      -1.07067954     -2.28605292      1.17318652
H       3.15836720     -1.30940936      0.57892672
H       2.36706920     -1.31866560     -1.01316203
H       2.76563673      0.23270151     -0.21415940
H      -0.57734866      2.32538296     -1.62100643
H      -0.20773504      3.44900071     -0.29365749
H      -1.55728113      2.30400497     -0.12324990
