18
CCCC(C)O
C       2.61746743     -0.04910230      0.53576639
C       1.35277326     -0.52263263     -0.16365467
C       0.14226171      0.32738458      0.23335136
C      -1.13398842     -0.11314764     -0.48941080
C      -2.30737912      0.79107409     -0.13643665
O      -1.45106713     -1.44843201     -0.10658088
H       2.51258941     -0.11579384      1.62336499
H       2.84472192      0.98950863      0.27506273
H       3.46958155     -0.66809215      0.23796897
H       1.50218775     -0.47176207     -1.24841813
H       1.17784791     -1.57398895      0.09134362
H      -0.00236475      0.24408261      1.31807440
H       0.34754404      1.38083616      0.00752960
H      -0.97270379     -0.10052678     -1.57326687
H      -2.52411998      0.75123964      0.93676011
H      -2.10801267      1.82971951     -0.41700791
H      -3.21500291      0.45997696     -0.65258994
H      -2.25233621     -1.71034381     -0.59130030
