41
CCOP(=O)(NC(C)C)Oc1ccc(SC)c(C)c1
C      -1.75989665     -3.36852607      0.95528353
C      -2.18066198     -1.94516619      0.65200186
O      -1.70243841     -1.60014440     -0.63670823
P      -1.54019840     -0.04095503     -1.03023468
O      -1.01813141      0.12484566     -2.42641696
N      -3.02915786      0.61490585     -0.78461761
C      -3.26348819      2.00382618     -1.18402661
C      -4.75965567      2.30140858     -1.06694381
C      -2.47067788      2.98405763     -0.32257464
O      -0.55812493      0.53124575      0.11171491
C       0.74673749      0.16971296      0.29132162
C       1.39825602      0.76918238      1.36559701
C       2.73028173      0.45769288      1.63930105
C       3.42772820     -0.45488497      0.83722052
S       5.13322556     -0.80156560      1.25415854
C       5.90971114      0.59154347      0.39546550
C       2.77258978     -1.07127741     -0.24533692
C       3.46332610     -2.07040135     -1.13454601
C       1.42867673     -0.74388419     -0.50967148
H      -2.12076205     -3.68117789      1.93908480
H      -2.15236679     -4.05687640      0.19950555
H      -0.66879747     -3.45985254      0.93360124
H      -3.27218175     -1.86784787      0.65709784
H      -1.77823933     -1.26972458      1.41252332
H      -3.69790917      0.03576352     -1.28247151
H      -2.97341506      2.13414440     -2.23316787
H      -5.11394081      2.18230490     -0.03666287
H      -4.97559002      3.32871717     -1.38016590
H      -5.34656740      1.63282281     -1.70675208
H      -1.39459654      2.88643762     -0.49497906
H      -2.66326248      2.82852984      0.74479321
H      -2.74135959      4.01794824     -0.56381930
H       0.87027346      1.47968911      1.99615029
H       3.21889449      0.93235747      2.48719211
H       5.56085873      1.54177622      0.80895153
H       6.99369616      0.53375023      0.52492033
H       5.68494352      0.55765397     -0.67410760
H       4.31366975     -1.60603112     -1.64387105
H       3.80641551     -2.93026476     -0.55035311
H       2.78944709     -2.45308697     -1.90875105
H       0.93268837     -1.21864950     -1.35273183
