28
CCCCCCCCC=O
C      -4.29232948      0.89888714      0.17938025
C      -3.42032873     -0.33223428      0.36824984
C      -1.99037025     -0.08566415     -0.11489999
C      -1.11785703     -1.32734258      0.08172487
C       0.29480664     -1.17593263     -0.48981402
C       1.13551922     -0.12331214      0.23611222
C       2.56902366     -0.09521956     -0.29775412
C       3.40863211      0.95583622      0.42117870
C       4.83052089      1.00779649     -0.08362242
O       5.28354844      0.29460959     -0.97241457
H      -4.34667818      1.18285325     -0.87643110
H      -5.30973155      0.70021015      0.53056003
H      -3.89796634      1.74949015      0.74443442
H      -3.86047502     -1.17172861     -0.18240083
H      -3.41233968     -0.60818314      1.42915626
H      -2.00414725      0.19022669     -1.17621172
H      -1.56807019      0.76192612      0.43625793
H      -1.05838172     -1.57337576      1.14893541
H      -1.59575990     -2.18222508     -0.41280458
H       0.79800715     -2.14815754     -0.41678691
H       0.23535127     -0.93115123     -1.55731027
H       1.14866497     -0.34024504      1.31100776
H       0.68756229      0.86850251      0.10921887
H       2.55818025      0.11402406     -1.37475767
H       3.02981664     -1.08316458     -0.17354152
H       2.97437872      1.95203323      0.28424745
H       3.44830078      0.74486908      1.49525903
H       5.47212230      1.75667165      0.41212611
