11
CC(C)Br
C      -1.27972228     -0.17664041     -0.04592020
C       0.06789989      0.46262692     -0.33194301
C       1.22306523     -0.36773509      0.19970489
Br      0.12061817      2.22998062      0.50587480
H      -2.09954738      0.44019737     -0.43022322
H      -1.44323771     -0.31334406      1.02899347
H      -1.34972825     -1.15920010     -0.52442720
H       0.18673952      0.63924889     -1.40544330
H       1.15327031     -0.51159532      1.28381618
H       2.18496833      0.11306333     -0.00973721
H       1.23567415     -1.35660214     -0.27069521
