13
CN(C)C(=S)[S-].[Na+]
C      -1.01501479     -0.93908662     -0.06640570
N      -0.03456512      0.10737951      0.20748773
C       1.35614239     -0.27792374     -0.01356606
C      -0.40051599      1.42327794      0.16403724
S       0.77869777      2.67266869      0.17733274
S      -2.05532070      1.88244394      0.11416946
Na      0.00000000      0.00000000      0.00000000
H      -1.31212374     -0.89938481     -1.11902289
H      -1.88095174     -0.85450679      0.59607794
H      -0.57627010     -1.92259874      0.13214908
H       1.48154268     -1.34880766      0.17800474
H       2.02527332      0.23468709      0.68312577
H       1.63310602     -0.07814880     -1.05339005
