27
CNC(=O)ON=C(SC)C(=O)N(C)C
C      -4.10417157      0.15852797     -2.23842752
N      -2.88355022     -0.20524303     -1.57239053
C      -2.15792361      0.71127742     -0.85650934
O      -2.40047006      1.91092127     -0.82636651
O      -1.14237537      0.07041776     -0.19196384
N      -0.43186741      0.97596567      0.62021220
C       0.57963324      0.38875935      1.16601853
S       1.72086990      1.10691122      2.25674017
C       0.87924481      2.66722953      2.59690136
C       1.03340010     -1.04025039      0.97777478
O       0.62297351     -1.88115337      1.77268703
N       1.85947237     -1.32208273     -0.11616866
C       2.40743631     -0.30324461     -0.99857025
C       2.42054957     -2.65501762     -0.23412494
H      -3.99715822      1.13102049     -2.72643541
H      -4.90543753      0.21094317     -1.49658970
H      -4.33746467     -0.60803704     -2.98082145
H      -2.68579883     -1.17675790     -1.37733146
H       1.46891189      3.24378976      3.31475443
H      -0.10907394      2.48681298      3.02871381
H       0.77671013      3.25852840      1.68281247
H       1.81386060      0.61220838     -0.99092750
H       2.43022895     -0.69134819     -2.02114376
H       3.42583515     -0.07243976     -0.67269627
H       3.47240600     -2.61908680      0.06464196
H       1.89746092     -3.37550901      0.39999755
H       2.34629798     -2.98314292     -1.27496039
