43
COC(=O)c1ccccc1S(=O)(=O)NC(=O)Nc1nc(OC(F)F)cc(OC(F)F)n1
C       1.91505095      2.37385992      2.89212714
O       2.68793188      2.16512351      1.70975338
C       2.04815382      1.45110341      0.75408441
O       0.91580724      0.99928207      0.80000785
C       2.94186540      1.31360794     -0.41324805
C       3.50211761      2.47931071     -0.96278575
C       4.29972572      2.40409389     -2.10818760
C       4.53868758      1.16957075     -2.71445715
C       3.98843184      0.00670398     -2.17318711
C       3.18528502      0.07752877     -1.02421326
S       2.59627383     -1.43217295     -0.30195977
O       3.18677058     -2.54424614     -1.01984723
O       2.78949154     -1.32067328      1.13060551
N       0.97283037     -1.41781935     -0.59469844
C       0.36841560     -1.27601613     -1.83657032
O       1.01111287     -1.22875742     -2.87935582
N      -0.98323651     -1.14692236     -1.89136515
C      -1.90039193     -1.22836104     -0.86258502
N      -1.49165749     -1.48104587      0.38587969
C      -2.44351085     -1.58175152      1.32882583
O      -1.96894558     -1.91293192      2.56245476
C      -2.27388045     -0.92221300      3.53611396
F      -2.16900423      0.32430568      3.01232713
F      -3.55708129     -1.09206925      3.94544320
C      -3.78367428     -1.47847424      1.06298183
C      -4.08918634     -1.18577274     -0.23956490
O      -5.41961428     -1.11703382     -0.57301626
C      -5.65380746     -0.01108858     -1.42918457
F      -6.97657811     -0.01748422     -1.73803157
F      -5.43231138      1.12880562     -0.72547425
N      -3.17969018     -1.06874045     -1.22246377
H       1.10687925      3.07663387      2.68478186
H       2.56669648      2.81939557      3.65035886
H       1.52113837      1.42625512      3.28211781
H       3.31388028      3.45110000     -0.50590779
H       4.73196440      3.30888698     -2.53122335
H       5.15764521      1.10998588     -3.60868858
H       4.18691826     -0.95133759     -2.65389249
H       0.39992446     -1.25750832      0.23838857
H      -1.37234449     -1.00506597     -2.81018920
H      -1.60471759     -1.01369044      4.39379274
H      -4.55026453     -1.61668022      1.81271653
H      -5.08310161     -0.01400543     -2.36266365
