12
O=C1C=CC(=O)C=C1
O      -1.24331158     -2.34987133     -0.00650057
C      -0.67124772     -1.26866488     -0.00350975
C       0.80246801     -1.18054236     -0.01716480
C       1.42749245      0.00076059     -0.01389736
C       0.67124760      1.26866472      0.00350905
O       1.24331185      2.34987094      0.00650110
C      -0.80246813      1.18054236      0.01716441
C      -1.42749270     -0.00076060      0.01389671
H       1.34220332     -2.11971648     -0.02985865
H       2.50761909      0.08293222     -0.02376626
H      -1.34220277      2.11971687      0.02985968
H      -2.50761943     -0.08293205      0.02376643
