26
CCCCCCCC
C       4.40161274      0.33356215     -0.42761567
C       3.16691318     -0.25942494      0.23222657
C       1.88237611      0.31275952     -0.36676273
C       0.64278121     -0.28627608      0.29968342
C      -0.64278104      0.28627472     -0.29968395
C      -1.88237608     -0.31275920      0.36676333
C      -3.16691321      0.25942495     -0.23222679
C      -4.40161290     -0.33356150      0.42761594
H       5.30845388     -0.08941955      0.01582305
H       4.43362832      1.41977534     -0.29551054
H       4.41527084      0.11705571     -1.50059036
H       3.18199970     -1.34869897      0.10992337
H       3.20025013     -0.05315678      1.30835197
H       1.87425392      1.40285186     -0.24550419
H       1.85600829      0.10737143     -1.44388447
H       0.66924990     -0.08068186      1.37673414
H       0.65100110     -1.37631480      0.17820983
H      -0.66925031      0.08067893     -1.37673425
H      -0.65100043      1.37631367     -0.17821187
H      -1.87425444     -1.40285181      0.24550664
H      -1.85600798     -0.10736897      1.44388483
H      -3.20024993      0.05315523     -1.30835232
H      -3.18199980      1.34869962     -0.10992462
H      -5.30845326      0.08941548     -0.01582774
H      -4.41527431     -0.11704846      1.50058922
H      -4.43362564     -1.41977569      0.29551720
