19
Cc1ccc([N+](=O)[O-])cc1[N+](=O)[O-]
C      -2.47898532     -0.71466603      0.38709343
C      -1.00846861     -0.45765697      0.19985761
C      -0.10044281     -1.50383399      0.43234645
C       1.27575894     -1.31190972      0.26765798
C       1.76320811     -0.05956859     -0.12943982
N       3.20849913      0.13640384     -0.30107352
O       3.94407952     -0.84970820     -0.15798025
O       3.60304126      1.27752211     -0.57641109
C       0.88715003      1.00609008     -0.35734797
C      -0.48837619      0.79597730     -0.18069817
N      -1.37110864      1.93433379     -0.41275736
O      -2.18354232      2.21777686      0.47641759
O      -1.22617948      2.54634203     -1.47889567
H      -2.69297596     -1.78891109      0.40887920
H      -2.82203966     -0.28381210      1.33262576
H      -3.05782147     -0.29549440     -0.44214778
H      -0.45973601     -2.48540830      0.74180468
H       1.95015572     -2.14717823      0.45276745
H       1.25778373      1.98370162     -0.66269853
