36
CC(C)OC(=O)C(C(=O)OC(C)C)=C1SCCS1
C      -3.95564956     -1.10057019     -1.50700094
C      -3.08922797     -1.91046450     -0.54921822
C      -3.92196082     -2.44737204      0.60831465
O      -2.07301936     -1.06338405      0.01734640
C      -0.95196642     -0.89521122     -0.72977896
O      -0.72055244     -1.40345103     -1.81641529
C       0.00888485     -0.04935746     -0.00989796
C       1.24404536     -0.72736349      0.40437104
O       1.27034600     -1.65079431      1.20388492
O       2.30351948     -0.21710724     -0.27415027
C       3.58078398     -0.82026214      0.00156749
C       4.46549474     -0.57211210     -1.21387672
C       4.18749519     -0.18738768      1.24869807
C      -0.22526136      1.25138785      0.25096792
S      -1.65083249      2.10381408     -0.32261559
C      -1.06904412      3.77043110      0.10389608
C      -0.26805804      3.65753047      1.38579141
S       0.86667757      2.25237787      1.19625612
H      -4.76544571     -1.71005931     -1.91963225
H      -3.35970310     -0.71162658     -2.33898422
H      -4.39232856     -0.23235384     -1.00118957
H      -2.63257258     -2.75975763     -1.07194091
H      -4.36926101     -1.62955995      1.18426660
H      -3.28914348     -3.01080481      1.30264902
H      -4.72087622     -3.10514502      0.25279683
H       3.47196441     -1.90329151      0.13676209
H       4.57250474      0.50046378     -1.41071260
H       4.01328636     -1.01201027     -2.10942756
H       5.46084958     -1.00560460     -1.07721296
H       3.55301301     -0.36225262      2.12361542
H       4.27233336      0.89897360      1.13487843
H       5.18071010     -0.59684388      1.45697906
H      -0.45245684      4.15527696     -0.71622378
H      -1.92179981      4.44415193      0.22923120
H      -0.92135748      3.47662988      2.24681259
H       0.29860866      4.57310995      1.57919245
