57
CC/C(=C(\c1ccccc1)c1ccc(OCCN(C)C)cc1)c1ccccc1
C      -5.44593043     -1.03854978      0.05089485
C      -4.46538880     -0.63289687     -1.04412149
C      -3.02895702     -0.54234365     -0.54347083
C      -2.34976318      0.61809561     -0.32200164
C      -3.04608049      1.91821590     -0.50044299
C      -3.93992659      2.39214188      0.46905138
C      -4.58099849      3.62003075      0.29644689
C      -4.32780526      4.38495411     -0.84123371
C      -3.43260579      3.92519811     -1.80628572
C      -2.79178670      2.69666479     -1.63644877
C      -0.91843483      0.60895720      0.08847068
C      -0.55478516      1.02478926      1.37361068
C       0.78925939      1.03534117      1.75617113
C       1.78816414      0.63901477      0.86360720
O       3.05907579      0.69730496      1.36596320
C       4.11885510      0.28164530      0.49796409
C       5.44701841      0.44936165      1.25439410
N       6.64496745      0.14889210      0.44562019
C       6.75130652     -1.27958073      0.14173510
C       7.84803737      0.59263947      1.15502698
C       1.43153878      0.23388308     -0.42245062
C       0.08624299      0.22424683     -0.80888057
C      -2.39569165     -1.87254041     -0.35184722
C      -2.07368326     -2.67192922     -1.45723346
C      -1.48132949     -3.92342766     -1.27621947
C      -1.20861063     -4.38675487      0.01012266
C      -1.52586680     -3.60000750      1.11620225
C      -2.11791710     -2.34840348      0.93658607
H      -5.40784603     -0.34780909      0.89904824
H      -6.46809144     -1.03421496     -0.34143035
H      -5.23813874     -2.04727588      0.42243548
H      -4.53315480     -1.35417421     -1.86861498
H      -4.80168930      0.31442791     -1.47918132
H      -4.13776008      1.80716656      1.36363826
H      -5.27443664      3.98111611      1.05141497
H      -4.82466720      5.34241122     -0.97378794
H      -3.23017790      4.52444674     -2.68976182
H      -2.09210892      2.34930656     -2.39244773
H      -1.31284862      1.34027470      2.08551859
H       1.05929194      1.35713595      2.75881215
H       3.97009624     -0.76836247      0.22359318
H       4.13504945      0.90989474     -0.40094487
H       5.42661506     -0.15329505      2.17267516
H       5.49000067      1.49445315      1.59069393
H       5.91788203     -1.61372015     -0.48443268
H       7.66125173     -1.48269798     -0.43438860
H       6.77582075     -1.89481440      1.04824136
H       7.97513046      0.08028156      2.11560100
H       8.74204895      0.41408780      0.54681064
H       7.81005690      1.67216297      1.34087590
H       2.17059469     -0.07949438     -1.15187944
H      -0.17405743     -0.09108651     -1.81630144
H      -2.27335849     -2.31913128     -2.46619253
H      -1.22976389     -4.53489758     -2.13893138
H      -0.74582223     -5.35995019      0.15076316
H      -1.31035150     -3.95786970      2.11924252
H      -2.35846992     -1.74331487      1.80691406
