68
C[C@H](CCC(=O)O)[C@H]1CC[C@H]2[C@@H]3[C@@H](O)C[C@@H]4C[C@H](O)CC[C@]4(C)[C@H]3CC[C@@]21C
C       3.98832387     -0.90118512     -2.07133045
C       4.01701501      0.23765303     -1.04747824
C       5.39044286      0.26130851     -0.32700912
C       5.69311209     -0.96302169      0.54014244
C       7.06727548     -0.87998974      1.15081777
O       7.86866165      0.03364864      1.06127158
O       7.36403051     -1.98317564      1.86701700
C       2.81805823      0.19242955     -0.06146705
C       2.86361911      1.36046054      0.96519771
C       1.41264867      1.69260582      1.33663670
C       0.60227625      0.57639900      0.69170629
C      -0.90973576      0.79383534      0.51096179
C      -1.57534873      1.08733518      1.87199843
O      -1.70758550      2.50084475      2.03471453
C      -2.93768433      0.42540644      2.05879953
C      -3.79434956      0.43761480      0.78413544
C      -5.16873919     -0.17507951      1.12959318
C      -5.98019934     -0.53821934     -0.10385853
O      -7.23835880     -1.08062202      0.28635376
C      -5.25613908     -1.56390481     -0.97292673
C      -3.74380672     -1.61842649     -0.73657794
C      -3.08380272     -0.24305632     -0.44548555
C      -3.28875951      0.66892025     -1.68604466
C      -1.54021831     -0.45783012     -0.16422588
C      -0.73603113     -0.93468095     -1.40308806
C       0.77995254     -1.03601549     -1.16859995
C       1.36365123      0.27786781     -0.62279117
C       1.24292176      1.40074229     -1.68069359
H       3.21168829     -0.73553669     -2.82203007
H       3.80638081     -1.86981168     -1.59492755
H       4.93611534     -0.96438236     -2.61741029
H       3.96468010      1.17737365     -1.61310120
H       5.46790668      1.16628127      0.28825933
H       6.17962779      0.36521535     -1.08441975
H       4.97291905     -1.03945519      1.36015170
H       5.65128550     -1.87540037     -0.06287379
H       8.26538166     -1.80655866      2.20948222
H       2.88981776     -0.74572497      0.50740028
H       3.34342473      2.25372466      0.54956403
H       3.43300710      1.06477042      1.85342890
H       1.28166315      1.72673472      2.42279699
H       1.13155039      2.67446403      0.93934248
H       0.71111619     -0.30071726      1.35250984
H      -1.05068198      1.66444328     -0.13878955
H      -0.93930464      0.75082515      2.69863552
H      -2.27789233      2.83611312      1.32269647
H      -3.48065625      0.93075818      2.86795578
H      -2.78815340     -0.61409258      2.37945860
H      -3.97401540      1.49287811      0.53417066
H      -5.73714334      0.52795158      1.75300448
H      -5.04894058     -1.07172104      1.75407211
H      -6.19077436      0.36422483     -0.68798044
H      -7.68777771     -0.41833167      0.83843713
H      -5.67259132     -2.56825121     -0.82247805
H      -5.45298710     -1.32746909     -2.02656758
H      -3.28616542     -2.09889025     -1.60854477
H      -3.55248798     -2.28991547      0.11130341
H      -3.00307020      0.16274154     -2.61370865
H      -4.33283760      0.97111762     -1.80782198
H      -2.70459325      1.59088020     -1.61064199
H      -1.45478718     -1.28019581      0.56291328
H      -0.90439725     -0.26878312     -2.25402396
H      -1.09121566     -1.92287302     -1.71546561
H       1.25242156     -1.31946195     -2.11306610
H       0.97486633     -1.85705279     -0.46678252
H       0.20555424      1.63574139     -1.93265591
H       1.70566278      2.33630932     -1.35087196
H       1.73417294      1.11021209     -2.61526969
