13
Oc1c(Br)c(Br)c(Br)c(Br)c1Br
O      -2.45636395      0.53396685     -0.49559782
C      -1.14406828      0.22013973     -0.23273171
C      -0.75864295     -1.12774651     -0.23910867
Br     -2.09537158     -2.44480362     -0.61582006
C       0.57926386     -1.47193536      0.02727784
Br      1.10714447     -3.31756883      0.01857325
C       1.52406454     -0.45370334      0.29935035
Br      3.35468282     -0.91471817      0.66450406
C       1.12543729      0.90357187      0.30349773
Br      2.39051603      2.29859376      0.66990928
C      -0.21409484      1.23377565      0.03582623
Br     -0.84881399      3.03824996      0.01869619
H      -2.56375342      1.50217800     -0.45437669
