34
CCCCCC(=O)CCCCC
C      -5.59732032     -0.54005110     -0.70831629
C      -5.17746541      0.51685665      0.30148643
C      -3.79974615      1.11948228      0.01848027
C      -2.65667273      0.11278353      0.16136420
C      -1.29877076      0.78751304     -0.02600622
C      -0.13820113     -0.18658882      0.10628987
O      -0.30758490     -1.38116205      0.34511461
C       1.24600243      0.41666525     -0.07574434
C       2.36082394     -0.61658456      0.07009968
C       3.73812322      0.02038642     -0.11823761
C       4.85381167     -1.01407053      0.02779513
C       6.22508994     -0.38457113     -0.15882524
H      -5.55576244     -0.14717472     -1.72907238
H      -4.95834746     -1.42603558     -0.65137208
H      -6.62526669     -0.86060594     -0.51047397
H      -5.91879919      1.32478065      0.28784364
H      -5.19686137      0.08647961      1.30948017
H      -3.63795512      1.94741624      0.71991682
H      -3.78790478      1.55255596     -0.98918072
H      -2.76514542     -0.68914906     -0.57793839
H      -2.70060608     -0.35864952      1.15092651
H      -1.16515759      1.57276306      0.72630643
H      -1.24372550      1.24317302     -1.02090705
H       1.28646949      0.87043986     -1.07218881
H       1.36953984      1.20655026      0.67343518
H       2.30271275     -1.08491438      1.06058125
H       2.22036779     -1.41752781     -0.66646413
H       3.87805778      0.81848745      0.62103817
H       3.79552513      0.48508488     -1.11012270
H       4.72094159     -1.81220472     -0.71182293
H       4.80348533     -1.47879050      1.01936472
H       6.40279415      0.39691754      0.58685057
H       6.31979163      0.06165607     -1.15393781
H       7.00775635     -1.14191136     -0.05028618
