32
CCCCC(CC)COC(C)=O
C       3.90740912     -1.93451731     -0.01180875
C       2.89251074     -1.17425214      0.82705445
C       1.90383362     -0.40475630     -0.05071263
C       0.87980346      0.35186152      0.80089107
C      -0.05232096      1.27717310     -0.01735984
C      -0.93777148      2.07143211      0.97042632
C      -1.81501039      3.12253384      0.30498521
C      -0.88460847      0.50466942     -1.05666912
O      -1.71465826     -0.45857078     -0.39494815
C      -2.48646068     -1.20363312     -1.23179409
C      -3.30815457     -2.17410430     -0.44030820
O      -2.51438321     -1.10556597     -2.45016826
H       4.48798020     -1.25111828     -0.63968272
H       3.41222403     -2.66245112     -0.66237865
H       4.60429449     -2.47623226      0.63533645
H       3.42259779     -0.47971415      1.48909246
H       2.35071221     -1.88193545      1.46531850
H       2.45040461      0.30296717     -0.68535748
H       1.39377192     -1.11301558     -0.71274507
H       1.42229267      0.96313470      1.53402785
H       0.28445655     -0.36754200      1.37729900
H       0.57571031      1.99525274     -0.56130077
H      -0.29101909      2.58384556      1.69390536
H      -1.57216116      1.38890099      1.54881813
H      -2.59824617      2.66526300     -0.30627557
H      -1.22056856      3.78813863     -0.32854317
H      -2.30989077      3.73340826      1.06706925
H      -1.51335224      1.19459025     -1.63062795
H      -0.22610807     -0.00682498     -1.76759940
H      -3.92419427     -2.76773577     -1.12178201
H      -3.96730781     -1.63149339      0.24194656
H      -2.65178556     -2.84970839      0.11389123
