22
c1coc(-c2nc3ccccc3[nH]2)c1
C       4.28987932      0.37755468      0.58280500
C       4.16818441     -0.42357637     -0.52587293
O       2.85994066     -0.62683443     -0.82536093
C       2.11095955      0.05328231      0.10370401
C       0.68410082      0.06024675      0.09299810
N      -0.09326180      0.68881290      0.95042435
C      -1.37697012      0.40932223      0.54594925
C      -2.59981637      0.81990462      1.09583268
C      -3.78730311      0.39218361      0.48791772
C      -3.75771125     -0.42715976     -0.64376319
C      -2.54714782     -0.84758246     -1.20742147
C      -1.37986016     -0.40644858     -0.58126356
N      -0.05132269     -0.61251062     -0.84705151
C       2.96917763      0.68433176      0.98786793
H       5.21313821      0.70072570      1.04250007
H       4.87911206     -0.90596787     -1.18227235
H      -2.61533025      1.45557811      1.97393509
H      -4.74247364      0.70340975      0.90433717
H      -4.69501516     -0.74509207     -1.09641612
H      -2.52532992     -1.48338696     -2.08561827
H       0.33819016     -1.16095755     -1.59930112
H       2.65885947      1.29416423      1.82607009
