49
CC1(C)[C@@H](C(Br)C(Br)(Br)Br)[C@H]1C(=O)O[C@H](C#N)c1cccc(Oc2ccccc2)c1
C       2.64951685      0.28349820     -0.88851561
C       3.15754989      0.85902121      0.41402522
C       4.53829682      1.46371265      0.27720102
C       2.20613711      1.49396675      1.43562717
C       0.72869098      1.73697189      1.18863037
Br      0.66094351      3.20239810     -0.17171437
C      -0.11986527      2.10292309      2.43437454
Br      0.45627679      3.78412895      3.29720441
Br     -2.03803250      2.23424609      1.93774356
Br      0.01269475      0.65105962      3.79049681
C       2.85552065      0.14740126      1.72918844
C       2.23295809     -1.20237541      1.74765035
O       2.82151690     -2.15723726      2.22846654
O       0.99233052     -1.24450703      1.21379365
C       0.36525648     -2.54267927      1.25021677
C       0.94817637     -3.46424009      0.24619398
N       1.40152758     -4.17083864     -0.55791871
C      -1.11150432     -2.27799152      0.99804364
C      -2.05146255     -2.44176130      2.02915145
C      -3.40860181     -2.19953173      1.80042694
C      -3.84477529     -1.78480738      0.54279075
C      -2.92014615     -1.58561594     -0.47919725
O      -3.40465862     -1.21208681     -1.71385297
C      -2.79930429     -0.11198274     -2.27509149
C      -2.05682563     -0.28277135     -3.44440717
C      -1.44089419      0.82072874     -4.03590173
C      -1.59177283      2.08975618     -3.47207840
C      -2.36534947      2.25951194     -2.32230378
C      -2.97432414      1.15803216     -1.72226515
C      -1.56252641     -1.83575278     -0.25957044
H       2.76753198      1.01209654     -1.69735986
H       1.59594509     -0.00198359     -0.86422856
H       3.22910567     -0.60812431     -1.15292310
H       5.25478410      0.69947642     -0.04249571
H       4.89816865      1.88710233      1.22116152
H       4.53224827      2.26698571     -0.46844219
H       2.62983247      2.33662831      1.98180376
H       0.26310930      0.90821817      0.65158216
H       3.63341037      0.20015349      2.49216719
H       0.47758788     -2.97444160      2.25315617
H      -1.74004500     -2.76441982      3.02180591
H      -4.12918644     -2.33989874      2.60341310
H      -4.90190475     -1.60978015      0.36200602
H      -1.94950073     -1.27069978     -3.88531943
H      -0.84784940      0.69502109     -4.93695018
H      -1.11285321      2.94894067     -3.93385087
H      -2.49246860      3.25050245     -1.89512992
H      -3.58860545      1.29016009     -0.83657808
H      -0.85666004     -1.69911485     -1.07682881
