29
CC1=CCC(C(C)(C)O)CC1
C       3.86743559      0.18057411     -0.47739582
C       2.37951481      0.05403571     -0.32240164
C       1.52977188      0.33172544     -1.32659195
C       0.03383388      0.25493855     -1.20191175
C      -0.45599551      0.16745147      0.25813167
C      -1.97951618     -0.12269688      0.39387272
C      -2.82688560      0.93549387     -0.32442652
C      -2.39373472     -1.51684622     -0.08714642
O      -2.32670940     -0.05891790      1.78583414
C       0.42144693     -0.83318248      1.03514457
C       1.89284964     -0.40499383      1.02926837
H       4.35022685     -0.78869188     -0.31642119
H       4.26483288      0.89347368      0.25226491
H       4.14922644      0.53244438     -1.47534933
H       1.91532830      0.63879566     -2.29653294
H      -0.30497806     -0.60807090     -1.78470121
H      -0.39013003      1.14946873     -1.67256168
H      -0.27929220      1.14964756      0.72404761
H      -2.71890458      0.88137691     -1.41199971
H      -2.55140664      1.94424124      0.00364113
H      -3.88900266      0.81332281     -0.08139646
H      -3.46825738     -1.67263053      0.06865099
H      -1.89600408     -2.30475940      0.48747137
H      -2.18409201     -1.66965697     -1.14939383
H      -2.10579300      0.83139237      2.10923190
H       0.34390470     -1.82996057      0.58306841
H       0.08556162     -0.92691377      2.07406543
H       2.03739408      0.41219269      1.74684554
H       2.49937448     -1.24997388      1.37669170
