44
CN(C)CCC=C1c2ccccc2CCc2ccccc21
C       4.25403500      0.69466356     -2.29768005
N       3.76925578      0.88662541     -0.92828490
C       4.86960190      0.69050249      0.01693124
C       2.64080371     -0.02718700     -0.66258769
C       1.89251238      0.28164280      0.64737583
C       0.72599197     -0.65927442      0.83683003
C      -0.59596994     -0.37187288      0.83837479
C      -1.55047022     -1.51006696      0.93442054
C      -1.42555024     -2.39634471      2.02456530
C      -2.29166142     -3.47722281      2.18651675
C      -3.30948508     -3.68550859      1.26696202
C      -3.46148541     -2.80890597      0.19325605
C      -2.59240512     -1.71169752      0.00381164
C      -2.90892171     -0.81585726     -1.18320070
C      -1.88359586      0.22384558     -1.64863033
C      -1.67839011      1.31434386     -0.62712158
C      -2.11962693      2.62246085     -0.86839834
C      -1.95410171      3.61220395      0.10165664
C      -1.35391940      3.30364129      1.32097530
C      -0.91016229      2.00498959      1.57010631
C      -1.05745530      1.01026813      0.59506941
H       5.06350837      1.39825068     -2.52262599
H       3.45692871      0.89766758     -3.02167304
H       4.62388142     -0.32329358     -2.46636317
H       5.24178550     -0.34031204      0.01039783
H       5.70603252      1.35698650     -0.22368624
H       4.56756142      0.94568102      1.03718889
H       1.91397145      0.06486217     -1.48151748
H       2.98424968     -1.07075917     -0.66412190
H       1.58560363      1.33141503      0.64383904
H       2.55478499      0.15191804      1.51058478
H       1.03311631     -1.69897550      0.95308890
H      -0.64873292     -2.23811575      2.77021089
H      -2.17428803     -4.14648044      3.03419191
H      -3.99353355     -4.52095906      1.38867068
H      -4.27872689     -2.97998044     -0.50577338
H      -3.09876558     -1.47216397     -2.04369976
H      -3.85489918     -0.30309492     -0.96054683
H      -2.24195235      0.66854176     -2.58596085
H      -0.92383336     -0.24823855     -1.89347498
H      -2.60007277      2.87773650     -1.80967214
H      -2.29903966      4.62452524     -0.09213722
H      -1.23101205      4.07344680      2.07785303
H      -0.44556768      1.77009270      2.52427878
