21
c1ccc2[nH]c(-c3cscn3)nc2c1
C      -3.60959447     -0.42846128      0.15925992
C      -3.43083614     -0.00558419     -1.16061088
C      -2.15796882      0.28217138     -1.66738500
C      -1.08501316      0.12458593     -0.78816282
N       0.26441961      0.30897736     -0.93146275
C       0.86673058      0.00671304      0.26012351
C       2.40433147      0.10276411      0.46921262
C       3.01498368     -0.20053883      1.66702987
S       4.70847738      0.02091506      1.51968534
C       4.48246726      0.49786804     -0.11431653
N       3.24324139      0.50435928     -0.55674706
N      -0.01390810     -0.36260923      1.16654628
C      -1.23085661     -0.29463201      0.53093558
C      -2.51429569     -0.57802017      1.01987372
H      -4.61027843     -0.64493563      0.52588131
H      -4.29889323      0.10238301     -1.80818049
H      -2.02008029      0.61029486     -2.69177084
H       0.75734780      0.61349827     -1.75811608
H       2.55433816     -0.53050188      2.58772515
H       5.32154776      0.77645147     -0.73862719
H      -2.64616014     -0.90569861      2.04488057
