80
CCCCC(CC)COC(=O)CCCCCCCCC(=O)OCC(CC)CCCC
C      -8.61575266      1.63230548      0.82473174
C      -8.20368157      0.55305225     -0.16426542
C      -6.68614662      0.37406319     -0.27275608
C      -5.97862154      1.59844473     -0.86428020
C      -4.50681504      1.34175909     -1.26626582
C      -3.96056351      2.49665964     -2.13508407
C      -3.89438955      3.85318596     -1.44708661
C      -3.58721509      1.08859637     -0.05536280
O      -3.81893365     -0.19778640      0.54057141
C      -3.22279348     -1.25660904     -0.08162526
O      -2.52663032     -1.17837884     -1.08251898
C      -3.55767940     -2.52611395      0.67006427
C      -3.16570933     -3.80696514     -0.06771420
C      -1.65857736     -4.06063125     -0.20604680
C      -0.92717295     -4.19336787      1.13129030
C       0.55018635     -4.57695243      0.97754741
C       1.40120421     -3.62436250      0.12950333
C       1.42459657     -2.18886590      0.66376516
C       2.25159542     -1.24923751     -0.21444721
C       3.74443364     -1.42035697     -0.05039839
O       4.29950053     -2.22151718      0.68796826
O       4.38127329     -0.51702769     -0.85083765
C       5.81478045     -0.50991290     -0.77828668
C       6.32584855      0.31285061      0.42022872
C       7.82428893      0.03452598      0.67294104
C       8.76528885      0.46408225     -0.44459437
C       6.06083800      1.83061695      0.26842119
C       4.58729145      2.22719114      0.42179230
C       4.38036604      3.73992883      0.54221781
C       4.74325797      4.49977269     -0.72374600
H      -9.70670278      1.66116462      0.91704477
H      -8.19650727      1.43598706      1.81699689
H      -8.28354746      2.62233428      0.49946536
H      -8.62448378      0.78075575     -1.15083131
H      -8.64411340     -0.39916882      0.15553055
H      -6.28790367      0.15082233      0.72369547
H      -6.48903117     -0.50024034     -0.90621501
H      -6.02791637      2.42572731     -0.14585736
H      -6.53130750      1.92016134     -1.75725606
H      -4.50315897      0.44585194     -1.90098600
H      -2.95400204      2.23147147     -2.48282581
H      -4.57935513      2.59143156     -3.03639450
H      -4.88979561      4.20761099     -1.16224776
H      -3.26589442      3.82239941     -0.55175264
H      -3.46232842      4.59524012     -2.12803413
H      -3.77090687      1.83390646      0.72698836
H      -2.52816237      1.17828067     -0.32827914
H      -4.64610981     -2.54200105      0.80606694
H      -3.09575668     -2.47980831      1.66049070
H      -3.60501272     -3.79280305     -1.07299575
H      -3.61592300     -4.65963029      0.45542164
H      -1.20687416     -3.26438404     -0.80463211
H      -1.52248391     -4.98769782     -0.77773251
H      -1.42020539     -4.96533220      1.73442724
H      -1.00066899     -3.26289706      1.70244476
H       0.61121938     -5.57897099      0.53508668
H       0.99291793     -4.65495825      1.97792233
H       2.42215560     -4.02228035      0.09983282
H       1.04438580     -3.63021279     -0.90712355
H       0.40286162     -1.79461657      0.69217209
H       1.80045218     -2.18124177      1.69431193
H       2.01341052     -0.21668286      0.06911984
H       1.99231236     -1.38821314     -1.26984628
H       6.19011702     -1.54132174     -0.74852835
H       6.17191780     -0.07585728     -1.71935603
H       5.79114161     -0.01936036      1.31963933
H       8.13026353      0.53866510      1.59889865
H       7.96248549     -1.04012736      0.85194285
H       8.54685966     -0.06055853     -1.37947452
H       9.79813508      0.23462948     -0.16489252
H       8.70745106      1.54140034     -0.62795643
H       6.43010137      2.17253401     -0.70543504
H       6.63886206      2.36493211      1.03362282
H       4.00401507      1.86389259     -0.43013994
H       4.17712939      1.75330234      1.32259089
H       3.32439933      3.92840507      0.77159404
H       4.96219548      4.13295171      1.38341541
H       4.19264941      4.11372397     -1.58761697
H       5.81341494      4.43217526     -0.93907308
H       4.49323003      5.55965808     -0.61018297
