40
CCN(C(=O)N(CC)c1ccccc1)c1ccccc1
C      -1.66691213     -2.51306486      0.98885517
C      -0.86354940     -1.74024489     -0.05231087
N      -1.01612256     -0.28354030      0.09470459
C      -0.24900991      0.37243891      1.08264370
O      -0.73139085      1.19445723      1.86679303
N       1.09436142     -0.03689583      1.19992315
C       1.71716060      0.19152828      2.50984619
C       2.39434098      1.55173975      2.62483213
C       1.96476873     -0.20560670      0.06188913
C       3.17912615     -0.89967903      0.18050476
C       4.03066292     -1.06244351     -0.91815900
C       3.68648351     -0.52813001     -2.15516449
C       2.49239828      0.17073754     -2.29289149
C       1.64171540      0.33164111     -1.19412438
C      -2.16572884      0.36736771     -0.49758616
C      -2.30366082      1.76547847     -0.45332059
C      -3.38795130      2.41813483     -1.05243300
C      -4.35836625      1.68632785     -1.72447300
C      -4.23895782      0.30417879     -1.80064566
C      -3.15221125     -0.34547422     -1.19993943
H      -1.33876202     -2.25788104      2.00209172
H      -1.52852867     -3.58968030      0.84877171
H      -2.73712416     -2.29713946      0.92447050
H       0.17966616     -2.03519083      0.07996204
H      -1.11724926     -2.04652019     -1.07221307
H       0.94039923      0.12288924      3.28220958
H       2.42044083     -0.61333695      2.74119164
H       2.79553647      1.68859912      3.63388713
H       1.68970601      2.36520240      2.42518137
H       3.22347150      1.64776417      1.91698000
H       3.48068087     -1.35823632      1.11642007
H       4.96202240     -1.61155695     -0.80445190
H       4.34826772     -0.65219314     -3.00820347
H       2.22063482      0.60208521     -3.25310737
H       0.73831841      0.91672381     -1.34210506
H      -1.56295609      2.38998076      0.03958858
H      -3.46530070      3.50053255     -0.99003090
H      -5.20136176      2.19103964     -2.18796490
H      -4.99199878     -0.27675103     -2.32709162
H      -3.12301982     -1.42528179     -1.29452983
