37
CC(C)N(C(=O)COc1nnc(C(F)(F)F)s1)c1ccc(F)cc1
C      -0.65446394     -2.02426643     -2.08042626
C      -1.46414041     -0.72533113     -2.01894682
C      -1.43582918      0.01797386     -3.35717867
N      -1.05727545      0.14492844     -0.88543178
C       0.22564034      0.71141840     -0.86505351
O       1.09447725      0.41927091     -1.69229374
C       0.48089262      1.85051953      0.14699184
O       1.84976795      2.23674299      0.23274927
C       2.63222196      1.36621929      0.87126581
N       2.18441181      0.34542340      1.57019375
N       3.20668093     -0.39251318      2.12914730
C       4.39680515      0.09988860      1.83231767
C       5.71182841     -0.45183598      2.26426784
F       6.50868578     -0.77358845      1.20908090
F       5.59096721     -1.58131574      3.01196892
F       6.41488542      0.43459738      3.02151673
S       4.33380085      1.52306310      0.85946446
C      -1.89748807      0.09548141      0.26382334
C      -3.25602480      0.42243342      0.14948645
C      -4.09418470      0.35219688      1.26433129
C      -3.57680441     -0.05920206      2.48663036
F      -4.38224359     -0.12795333      3.55407361
C      -2.23795941     -0.40706758      2.61444080
C      -1.39782739     -0.33567399      1.50106293
H      -1.07041131     -2.69787183     -2.83749382
H       0.39439089     -1.85157023     -2.33739763
H      -0.68070803     -2.54403868     -1.11672643
H      -2.50764569     -1.02764599     -1.86442032
H      -2.01719955      0.94429111     -3.29635615
H      -1.87068652     -0.60196334     -4.14861900
H      -0.42046605      0.28106017     -3.66740784
H       0.09126480      1.65764218      1.14718570
H      -0.06449390      2.72215232     -0.23454785
H      -3.66764998      0.75686324     -0.79967658
H      -5.14454025      0.61492326      1.18713848
H      -1.85687592     -0.74239420      3.57419787
H      -0.36180283     -0.65285770      1.60724644
