117
CC[C@]1(O)C[C@H]2CN(CCc3c([nH]c4ccccc34)[C@@](C(=O)OC)(c3cc4c(cc3OC)N(C)[C@H]3[C@@](O)(C(=O)OC)[C@H](OC(C)=O)[C@]5(CC)C=CCN6CC[C@]43[C@@H]65)C2)C1
C       5.58903068     -4.08881093     -3.97886475
C       5.52855270     -2.56383117     -3.93761164
C       5.61586896     -1.94109407     -2.52387746
O       6.92350571     -2.23565939     -2.00827170
C       4.54549398     -2.48239393     -1.56334111
C       4.38866302     -1.65705667     -0.24804201
C       5.36282571     -0.46740902     -0.17580918
N       5.47304756      0.32222248     -1.38621130
C       4.88953492      1.65582365     -1.39882074
C       3.38504882      1.75534208     -1.10023240
C       3.06751630      1.87609940      0.36394686
C       2.69039973      0.90628413      1.29546148
N       2.48846409      1.58658467      2.49090539
C       2.76152347      2.91962123      2.37757950
C       2.69839594      3.93675234      3.33782110
C       3.04989114      5.22928071      2.93656115
C       3.44081395      5.48572037      1.62580573
C       3.48166677      4.45499905      0.67867377
C       3.13811259      3.13816452      1.05985347
C       2.39621730     -0.61643880      1.26833904
C       3.15110222     -1.40007057      2.39164894
O       2.90370989     -2.56510900      2.70251511
O       4.18092608     -0.69296541      2.93311437
C       4.97174872     -1.40644133      3.88295205
C       0.84222319     -0.77393446      1.45668571
C      -0.01574086     -0.86869852      0.34165734
C      -1.39884483     -0.93665024      0.52227119
C      -1.97603177     -0.87776664      1.78600181
C      -1.16011504     -0.75392392      2.89720566
C       0.23394712     -0.72784096      2.74036324
O       1.03894243     -0.53422727      3.83949145
C       0.75037005     -1.43231533      4.91639056
N      -3.39302436     -0.86734691      1.75515724
C      -4.01399580     -1.56390430      2.88245551
C      -3.72826213     -1.32291172      0.36414585
C      -4.99664680     -0.68967355     -0.23772251
O      -5.23825272     -1.27849200     -1.54351247
C      -6.23744178     -1.06449672      0.59423259
O      -6.92151714     -0.28494913      1.24884166
O      -6.49936297     -2.40765665      0.51662532
C      -7.68778495     -2.81321256      1.19889652
C      -4.89560072      0.85601165     -0.34536217
O      -6.02615964      1.24807082     -1.19337655
C      -6.78286567      2.30666176     -0.79939183
C      -7.93042427      2.49155573     -1.74517510
O      -6.57054704      3.02246921      0.16594424
C      -3.53827177      1.41404932     -0.93650606
C      -2.76832632      2.26495155      0.13817998
C      -3.44227513      3.52740204      0.67664020
C      -3.77982660      2.32922863     -2.15707132
C      -3.40565708      2.01391340     -3.40849742
C      -2.73373905      0.72493431     -3.77458852
N      -2.91224705     -0.27059775     -2.71909256
C      -2.07005582     -1.45055721     -2.89339125
C      -2.22146804     -2.15338648     -1.55200257
C      -2.47493953     -1.02043508     -0.52491096
C      -2.55889999      0.26605950     -1.38515159
C       2.87740743     -1.33843512     -0.03833475
C       5.43098919     -0.40129385     -2.65074427
H       5.59630729     -4.42564481     -5.02419434
H       6.49490481     -4.48207553     -3.49739793
H       4.71012832     -4.53356227     -3.49434656
H       4.60257506     -2.24478124     -4.43407368
H       6.36603908     -2.18754403     -4.54277089
H       6.94020674     -3.16690417     -1.72969181
H       3.58353129     -2.52258700     -2.09495164
H       4.78102066     -3.51787325     -1.28153495
H       4.68795769     -2.34114311      0.55929526
H       6.36243978     -0.87802887      0.02385441
H       5.18617101      0.15703643      0.70306953
H       5.45743583      2.29627750     -0.71168398
H       5.05351662      2.09413611     -2.39063995
H       3.00965160      2.66508519     -1.58767795
H       2.81900435      0.96313243     -1.59197715
H       2.16283069      1.14566378      3.34124461
H       2.39692378      3.73145931      4.35935446
H       3.02129088      6.03799011      3.66083823
H       3.70933989      6.49751635      1.32997503
H       3.77812815      4.67597126     -0.34145883
H       4.34478695     -1.82845466      4.67426775
H       5.67987774     -0.70785448      4.33340285
H       5.53870821     -2.19448329      3.37656890
H       0.37088385     -0.85688063     -0.67146725
H      -1.59940607     -0.61708302      3.87788531
H       1.64852792     -1.50550059      5.53693318
H       0.50158529     -2.43765943      4.56027387
H      -0.05398125     -1.02938166      5.53965047
H      -5.10359108     -1.52424313      2.81951078
H      -3.71519457     -2.61935950      2.91676532
H      -3.76355960     -1.08755814      3.83789466
H      -3.86011769     -2.41343547      0.41086975
H      -5.28101810     -0.54203641     -2.18626955
H      -7.54228470     -2.74364370      2.28207084
H      -7.88907152     -3.85619133      0.93584515
H      -8.54657674     -2.20877248      0.88382520
H      -5.03995572      1.27114412      0.65859088
H      -7.55219745      2.68463737     -2.75155770
H      -8.56720210      1.60404075     -1.73528646
H      -8.52834540      3.35166328     -1.42422386
H      -1.79993240      2.57387633     -0.28122686
H      -2.53059758      1.64609528      1.00506264
H      -3.72047397      4.22393298     -0.11843871
H      -4.32796446      3.29005711      1.27192632
H      -2.74476566      4.05679066      1.33967293
H      -4.28720581      3.27470700     -1.99452592
H      -3.59112104      2.71687482     -4.21773091
H      -3.18664567      0.34385110     -4.69793517
H      -1.67476919      0.92691777     -3.97681139
H      -2.40980120     -2.08363864     -3.71806968
H      -1.01993391     -1.18438169     -3.06313347
H      -1.34046623     -2.76385517     -1.32821375
H      -3.07924023     -2.83682663     -1.60858609
H      -1.54893183      0.69593380     -1.47526651
H       2.37673919     -2.32133442     -0.05949295
H       2.50507129     -0.83253316     -0.92693276
H       6.22799761      0.00192851     -3.28871959
H       4.47315478     -0.21368334     -3.15280992
