41
COC(=O)c1ccccc1S(=O)(=O)NC(=O)Nc1nc(C)nc(OC)n1
C      -5.03922449      2.14186120      0.05426192
O      -4.68809358      0.75807089      0.08951903
C      -3.37706439      0.52961343      0.33765174
O      -2.49875984      1.36623003      0.48033433
C      -3.14943528     -0.93123223      0.41639034
C      -3.64655094     -1.74378068     -0.61496042
C      -3.40083194     -3.11848900     -0.60826889
C      -2.65563238     -3.69054746      0.42189334
C      -2.15951551     -2.89296351      1.45365132
C      -2.40345809     -1.51318212      1.44924256
S      -1.84123219     -0.53949526      2.81937668
O      -2.94951827      0.30637954      3.21298403
O      -1.21740834     -1.41009176      3.79162409
N      -0.68307949      0.44803608      2.14993132
C       0.43337577     -0.01688136      1.45704414
O       0.71983679     -1.20105378      1.42810636
N       1.08933191      0.99895335      0.84039118
C       2.22506080      0.88000360      0.05594784
N       2.77303032     -0.30088397     -0.19157784
C       3.85936798     -0.28842524     -0.96024675
C       4.52693067     -1.59920568     -1.23483918
N       4.41033261      0.81151839     -1.46664819
C       3.77464705      1.93747410     -1.15642552
O       4.24509477      3.14408854     -1.62948644
C       5.43456697      3.02159313     -2.39856671
N       2.68279794      2.03503490     -0.40723978
H      -4.51088814      2.64918993     -0.75896304
H      -6.11418382      2.21428387     -0.13211652
H      -4.82033538      2.61767725      1.01539678
H      -4.21875105     -1.31039933     -1.43288705
H      -3.78546063     -3.74415688     -1.41077052
H      -2.45976664     -4.76084632      0.42386928
H      -1.57968254     -3.35270523      2.25284782
H      -1.08521224      1.34846331      1.89396264
H       0.77043201      1.94449462      0.95446087
H       5.17344063     -1.86723867     -0.39397644
H       3.77993702     -2.38714626     -1.37204204
H       5.13566493     -1.54243922     -2.14250022
H       5.26429669      2.42612551     -3.30229097
H       6.25394842      2.60610173     -1.80160917
H       5.73199192      4.02597059     -2.71514287
