42
CCCN(CCC)c1c([N+](=O)[O-])cc(S(C)(=O)=O)cc1[N+](=O)[O-]
C      -3.16663029      0.54243828     -1.90576984
C      -1.93631433      1.41926341     -1.72255665
C      -1.56972488      1.62843148     -0.25110639
N      -1.06521389      0.38047043      0.36345223
C      -1.54962234      0.09273592      1.73236510
C      -2.95704506     -0.50734532      1.68080513
C      -3.45824852     -0.86676353      3.07045979
C       0.28954545      0.07019557      0.15358935
C       1.39181962      0.81530892      0.62599315
N       1.20905538      1.97705630      1.47156453
O       1.42554604      3.08010431      0.95213536
O       0.90455974      1.77693802      2.65348171
C       2.73079389      0.48668101      0.33605787
C       3.00126033     -0.63349054     -0.44712932
S       4.68609084     -1.09043336     -0.78881960
C       5.01537906     -0.32958329     -2.35683323
O       4.70232979     -2.52889259     -0.96090082
O       5.50778020     -0.44561865      0.21559902
C       1.96259873     -1.44076896     -0.90097432
C       0.63972207     -1.07883203     -0.59126542
N      -0.39531694     -1.96344966     -1.08875642
O      -0.91603269     -2.73869249     -0.27629681
O      -0.61332341     -1.92837883     -2.30806218
H      -3.40317584      0.44371662     -2.96992131
H      -4.03639775      0.98104837     -1.40623884
H      -3.01121052     -0.46147030     -1.50169558
H      -1.09352907      0.99069812     -2.27572057
H      -2.14333056      2.39797782     -2.17186607
H      -0.83432623      2.43476000     -0.18350552
H      -2.45657238      1.98756550      0.28527113
H      -0.88552830     -0.62135883      2.23739340
H      -1.56145916      1.01059507      2.33180972
H      -2.96040899     -1.40551868      1.05330717
H      -3.65758355      0.19925725      1.22210372
H      -2.80529088     -1.60686533      3.54395270
H      -3.49886656      0.01819069      3.71349216
H      -4.46548267     -1.29099075      3.01203954
H       3.54367465      1.09552887      0.73290313
H       4.89414382      0.75101738     -2.26066880
H       4.32625814     -0.73335172     -3.10091795
H       6.04430280     -0.56444464     -2.63760672
H       2.16577426     -2.34372983     -1.47635434
