21
CCCc1ccccc1
C      -3.32658946      0.05344219      0.02226328
C      -1.88769128      0.01721219     -0.46761036
C      -0.89993062      0.03810874      0.69943860
C       0.52971740      0.00234057      0.22035306
C       1.21677414      1.19197512     -0.05556569
C       2.53453903      1.15751545     -0.51446882
C       3.17545499     -0.06506573     -0.70605717
C       2.49880886     -1.25422290     -0.44103197
C       1.18101539     -1.22168731      0.01792961
H      -3.54731191     -0.81197791      0.65522907
H      -4.01666290      0.03779705     -0.82712841
H      -3.52103767      0.96191790      0.60120913
H      -1.71136847      0.87548473     -1.12737854
H      -1.73744013     -0.88443908     -1.07379943
H      -1.05616367      0.93546533      1.31165353
H      -1.08210404     -0.81533335      1.36495668
H       0.72779713      2.15317996      0.08497178
H       3.06035158      2.08520488     -0.72395081
H       4.20116443     -0.09115603     -1.06382998
H       2.99674594     -2.20809235     -0.59322016
H       0.66393127     -2.15766946      0.21623557
