17
CC(C)(N)CO
C       0.30932971      0.97664696     -1.14107622
C      -0.09663697      0.03392446      0.00037639
C      -1.29617214     -0.81859461     -0.42415691
N      -0.45716658      0.86740099      1.16810583
C       1.09086341     -0.87497033      0.39964116
O       2.13181617     -0.09172436      0.98428292
H       0.61675447      0.40805399     -2.02617574
H      -0.52280287      1.62555467     -1.43881109
H       1.14727776      1.62349065     -0.85674028
H      -1.61860391     -1.48583762      0.38350912
H      -1.04616780     -1.44273120     -1.28955267
H      -2.15321813     -0.19395924     -0.70136473
H      -1.22176304      1.49408349      0.91204781
H      -0.82893556      0.27099722      1.90934068
H       0.78492346     -1.62104245      1.14158248
H       1.50245152     -1.40354226     -0.46632445
H       1.65805049      0.63224964      1.44531570
