17
c1ccc2ncccc2c1
C      -2.29422880      0.71197388      0.24207524
C      -2.35648322     -0.67360550      0.33771013
C      -1.18572849     -1.43184256      0.23921879
C       0.05514232     -0.83910936      0.04629828
N       1.15284746     -1.61205780     -0.04211536
C       2.34362999     -1.00177096     -0.22988211
C       2.50157906      0.36697530     -0.33643089
C       1.36641547      1.16282436     -0.24478443
C       0.11268730      0.56809058     -0.05012415
C      -1.06251376      1.33409928      0.04843417
H      -3.20100311      1.30640119      0.31790460
H      -3.31140274     -1.17015837      0.48873022
H      -1.24135798     -2.51513438      0.31486606
H       3.19774571     -1.66995100     -0.29445482
H       3.48244475      0.80274156     -0.48684565
H       1.46245728      2.24227165     -0.32525217
H      -1.02223123      2.41825214     -0.02534792
