18
COc1ccccc1[N+](=O)[O-]
C       2.65721168     -0.76821153     -0.13799635
O       1.72801912      0.30828784     -0.16880119
C       0.40040733      0.00525015     -0.05267070
C      -0.12338484     -1.29135847     -0.04716913
C      -1.50677126     -1.50257548      0.04356195
C      -2.38863619     -0.42431399      0.12491918
C      -1.89080766      0.87503843      0.12056047
C      -0.50531330      1.07030624      0.03744091
N      -0.01869382      2.43463091      0.04926036
O      -0.35864315      3.15796355     -0.89834337
O       0.64814429      2.79558442      1.02896419
H       2.53747923     -1.41431551     -1.01365568
H       3.66415767     -0.34150181     -0.17431350
H       2.57065395     -1.34024141      0.79173563
H       0.51491879     -2.16672721     -0.12062836
H      -1.89693372     -2.51877173      0.04481773
H      -3.46007742     -0.59975822      0.19010661
H      -2.57173071      1.72071381      0.18221125
