16
COCCOC
C       2.98088213     -0.27943581     -0.08658903
O       1.64563261     -0.76728412     -0.09167712
C       0.70637964      0.28640176     -0.30468762
C      -0.70637767     -0.28640703     -0.30154603
O      -1.64563432      0.76728902     -0.51448827
C      -2.98088400      0.27944078     -0.51957780
H       3.65519502     -1.12380244      0.07954757
H       3.12134945      0.44432872      0.72203071
H       3.22518218      0.17861217     -1.04988651
H       0.80280418      1.04126622      0.48498458
H       0.90525438      0.77899368     -1.26411555
H      -0.90523327     -0.77904272      0.65786268
H      -0.80281734     -1.04123502     -1.09125005
H      -3.12138080     -0.44422857     -1.32827722
H      -3.65520475      1.12382579     -0.68558678
H      -3.22514745     -0.17872243      0.44367402
