47
Cc1cc2nc3c(=O)[nH]c(=O)nc-3n(C[C@H](O)[C@H](O)[C@H](O)CO)c2cc1C
C      -5.03529436     -0.97042876      1.84707861
C      -3.79891973     -0.67170779      1.04527600
C      -3.75334801      0.48478959      0.25747138
C      -2.62510744      0.80975048     -0.50469369
N      -2.69082735      2.00005695     -1.25407915
C      -1.63621674      2.36888246     -1.91329031
C      -1.65406060      3.63415686     -2.72821056
O      -2.56003251      4.44805836     -2.67071364
N      -0.52825765      3.80613585     -3.47413325
C       0.66816830      3.29619171     -3.06490974
O       1.68513631      3.95709451     -3.23976688
N       0.70236216      2.06853499     -2.45921715
C      -0.35876662      1.56416414     -1.90313215
N      -0.36885800      0.32251477     -1.28369048
C       0.79515436     -0.58200329     -1.37915798
C       1.84868620     -0.24717387     -0.29475441
O       2.66400686      0.85505062     -0.72542127
C       2.76841528     -1.45332081     -0.01021165
O       1.96497775     -2.61902032      0.25507432
C       3.71387494     -1.27920894      1.19488954
O       2.91720449     -1.32732909      2.40007521
C       4.57118918     -0.01501958      1.21209314
O       5.44132226     -0.09398737      2.34925116
C      -1.49186598     -0.03804635     -0.50305595
C      -1.54578731     -1.19088775      0.29982478
C      -2.67906522     -1.51750910      1.07082217
C      -2.66399980     -2.76966782      1.90697904
H      -5.45017745     -1.94190791      1.56038368
H      -4.80267450     -0.97325308      2.91662215
H      -5.81464847     -0.21924008      1.68002077
H      -4.60730791      1.15944299      0.22705360
H      -0.44934383      4.72841428     -3.87870752
H       0.46794146     -1.62518467     -1.35186244
H       1.25263238     -0.46793384     -2.37132721
H       1.34257626      0.05261463      0.63023207
H       2.10579881      1.45940524     -1.25815524
H       3.37337288     -1.65849503     -0.90151728
H       1.85057146     -2.62466721      1.23098726
H       4.36458179     -2.16055921      1.25783233
H       3.54694503     -1.08715681      3.11216718
H       5.18109611      0.06956666      0.30837746
H       3.96548077      0.88362362      1.35479477
H       5.99169320      0.70980245      2.32883817
H      -0.69709046     -1.86645208      0.35909019
H      -1.70805191     -3.29796919      1.82628083
H      -2.81430319     -2.52364493      2.96291685
H      -3.44918322     -3.45647627      1.57557530
