13
CCCN
C      -1.73751007     -0.04475678     -0.01919839
C      -0.31854854     -0.59065351      0.02229662
C       0.69798462      0.52151650      0.26761711
N       2.04946149     -0.02508163      0.29472528
H      -1.99985417      0.43811348      0.92757617
H      -1.85208495      0.68932561     -0.82316643
H      -2.45067574     -0.85601553     -0.19583025
H      -0.25000755     -1.34627770      0.81433535
H      -0.10195865     -1.09591292     -0.92680128
H       0.63299062      1.27343718     -0.52612204
H       0.48974217      1.02245782      1.21945223
H       2.71086155      0.71963965      0.51055522
H       2.12959924     -0.70579219      1.04907357
