16
COCC(C)O
C      -2.57822034      0.17323880      0.20503486
O      -1.29881079     -0.27649901      0.63346715
C      -0.27338733      0.09819172     -0.29745672
C       1.06280153     -0.41749068      0.24479753
C       2.21956259     -0.07385996     -0.67681809
O       1.30821534      0.17499199      1.52356837
H      -3.31867543     -0.13955588      0.94601790
H      -2.59563410      1.26489317      0.13235804
H      -2.83775946     -0.27374829     -0.75940098
H      -0.48687619     -0.34077798     -1.27829424
H      -0.25594131      1.19150682     -0.37638024
H       1.01222378     -1.50103963      0.39929255
H       2.32061496      1.01092835     -0.79233975
H       2.08643211     -0.52158030     -1.66621321
H       3.16407656     -0.43352827     -0.25458582
H       0.47137809      0.06432913      2.01695264
