45
CC(C)(C)c1ccc(CCOc2ncnc3ccccc23)cc1
C       6.05378968      0.42433747     -0.39193719
C       5.11593386     -0.47161629      0.44578954
C       5.23011282     -0.07525660      1.93368536
C       5.63576394     -1.92148071      0.31822276
C       3.66399844     -0.28728415     -0.02859529
C       3.05765894      0.98223831      0.02728240
C       1.73988214      1.18518774     -0.39525611
C       0.98430178      0.12207024     -0.89306395
C      -0.44143394      0.33104771     -1.32861693
C      -1.43357523      0.13105426     -0.18368986
O      -2.74949567      0.35177247     -0.70233135
C      -3.75469262      0.20123801      0.23939990
N      -3.41598496     -0.12435541      1.49972079
C      -4.43911704     -0.25154042      2.34909834
N      -5.73759425     -0.08691936      2.06023465
C      -6.04163402      0.23692942      0.79651569
C      -7.37388164      0.41927939      0.44375191
C      -7.75497621      0.75809549     -0.85890789
C      -6.78744135      0.92133631     -1.84226266
C      -5.44589708      0.74439939     -1.51506008
C      -5.06774629      0.40141217     -0.19401097
C       1.56808209     -1.14569219     -0.95036114
C       2.88760578     -1.34567178     -0.52656436
H       5.82627032      1.48922908     -0.27210813
H       5.97404251      0.18896764     -1.45989391
H       7.10055172      0.28557998     -0.09704943
H       6.24916158     -0.23042260      2.30702131
H       4.98486579      0.97911491      2.10188217
H       4.55268063     -0.67367835      2.55438835
H       5.61867249     -2.26619528     -0.72228607
H       5.03970214     -2.61828223      0.91901505
H       6.67245882     -2.00160342      0.66686861
H       3.60825614      1.84071153      0.40607385
H       1.31137176      2.18294090     -0.33040750
H      -0.68471430     -0.34941786     -2.15522670
H      -0.56046037      1.33665797     -1.75298825
H      -1.34746540     -0.89203651      0.20473609
H      -1.21922393      0.84768181      0.61974302
H      -4.19690578     -0.51373786      3.37345917
H      -8.13996552      0.29392301      1.20602277
H      -8.80693374      0.89263117     -1.09785144
H      -7.07407705      1.18453712     -2.85711699
H      -4.68733877      0.87205027     -2.28463416
H       1.00089138     -1.99477307     -1.32625383
H       3.28450040     -2.35445969     -0.59818621
