63
CCCCCCCCCCCCCCCCCCCCO
C       9.29777949     -1.94369890     -1.31419217
C       8.24273479     -0.84978385     -1.38159363
C       6.87052002     -1.37282436     -0.95540521
C       5.74551424     -0.34573182     -1.12157903
C       5.87271271      0.85229787     -0.17676704
C       4.74527342      1.87717637     -0.34102463
C       3.37482583      1.35289462      0.09642751
C       2.31428713      2.45498365      0.02312857
C       0.89994861      1.95820554      0.34018161
C       0.73514147      1.48690073      1.78754762
C      -0.72071927      1.19669442      2.16696885
C      -1.31983106      0.00915940      1.40864943
C      -2.73971665     -0.29521139      1.89318965
C      -3.34936091     -1.54253468      1.24585859
C      -3.49389379     -1.49683609     -0.27852713
C      -4.30721114     -0.32293282     -0.83309128
C      -5.73094409     -0.17548673     -0.28379486
C      -6.63125866     -1.37151266     -0.59940431
C      -8.03955253     -1.27513002      0.00314696
C      -8.89945699     -0.15694858     -0.57502530
O      -8.53156068      1.09215319     -0.00976668
H       9.39038880     -2.33700208     -0.29687222
H      10.27279496     -1.54871339     -1.61603021
H       9.04637619     -2.77343666     -1.98239267
H       8.55484907     -0.02406922     -0.73375547
H       8.19274185     -0.46175136     -2.40539687
H       6.90935289     -1.71077283      0.08732734
H       6.62056990     -2.25218415     -1.56222452
H       4.79759210     -0.86198993     -0.93333737
H       5.71610753      0.00267469     -2.16103173
H       6.81936746      1.37003917     -0.36755225
H       5.90505338      0.50431224      0.86270110
H       4.70013971      2.21005599     -1.38511305
H       4.99711322      2.75928105      0.26097303
H       3.06840116      0.51947455     -0.54483985
H       3.44762348      0.96994825      1.12028016
H       2.30849162      2.87939616     -0.98860643
H       2.57904722      3.27130701      0.70608764
H       0.64129060      1.14999608     -0.35317325
H       0.19832539      2.77920648      0.14796579
H       1.11581726      2.26303657      2.46283406
H       1.33698951      0.58830052      1.96418266
H      -0.75780480      0.98989546      3.24378763
H      -1.33120199      2.09185928      1.99660313
H      -0.68605411     -0.87439885      1.54978013
H      -1.33880190      0.23128914      0.33717376
H      -3.38465505      0.57374582      1.72023196
H      -2.72127958     -0.45330510      2.97893249
H      -4.33106552     -1.72642352      1.69828476
H      -2.73239964     -2.41206676      1.50589706
H      -2.49765953     -1.47404580     -0.73660264
H      -3.94277724     -2.44003075     -0.61206699
H      -4.35854412     -0.42549359     -1.92452296
H      -3.76496734      0.61162704     -0.64572309
H      -6.15660849      0.72812619     -0.73381282
H      -5.70298412     -0.00297466      0.79764832
H      -6.70635173     -1.49844607     -1.68621346
H      -6.17426536     -2.28692499     -0.20705767
H      -7.95820466     -1.16110624      1.09070476
H      -8.54514407     -2.22914601     -0.18961598
H      -8.80321144     -0.10183567     -1.66393117
H      -9.95048403     -0.33583331     -0.32604843
H      -9.10920050      1.76654535     -0.40602243
