32
Cc1cc(-c2ccc(N)c(C)c2)ccc1N
C      -3.87397618     -1.27499923      0.62020562
C      -2.96545497     -0.21318499      0.06418792
C      -1.57367196     -0.43009494      0.08001873
C      -0.66852538      0.53375521     -0.39227196
C       0.78317003      0.29401213     -0.36565111
C       1.55542294      0.41054550     -1.52717669
C       2.93465055      0.18237348     -1.49803662
C       3.59185365     -0.12690600     -0.30247618
N       4.95630953     -0.45244318     -0.34449856
C       2.82567287     -0.31288223      0.85991869
C       3.45387652     -0.74266991      2.15709212
C       1.43753038     -0.07660085      0.82001907
C      -1.19232031      1.73929763     -0.87331613
C      -2.57230222      1.96345530     -0.89746536
C      -3.47306571      0.97672219     -0.48283547
N      -4.83998500      1.28914981     -0.42452147
H      -4.50118294     -1.68991984     -0.17527942
H      -4.51002043     -0.85910633      1.40832007
H      -3.30674718     -2.10129463      1.06177501
H      -1.18718696     -1.37088727      0.46969705
H       1.08366309      0.65868943     -2.47547542
H       3.49478641      0.24995551     -2.42700847
H       5.43342179     -0.33743570      0.54302422
H       5.45714702     -0.00484292     -1.10541316
H       2.70179890     -0.89997773      2.93755990
H       4.14747064      0.02552639      2.51366693
H       3.99040936     -1.68808958      2.02687256
H       0.85395599     -0.18454538      1.73330914
H      -0.52560384      2.52854067     -1.21388628
H      -2.93903368      2.92500211     -1.24709966
H      -5.44797519      0.47772501     -0.44680732
H      -5.12408772      1.99482407     -1.09644776
