26
CCOC(=O)CCC(=O)OCC
C       4.27134543     -1.16369523      1.05167722
C       3.52086623     -1.01340315     -0.25818798
O       2.79398896      0.22377828     -0.27254928
C       1.54302004      0.18193271      0.26443634
O       1.02588201     -0.79638321      0.78510437
C       0.90403144      1.54629918      0.16508313
C      -0.58953871      1.48355360      0.46247589
C      -1.33670851      0.75023926     -0.62514658
O      -0.88756528      0.49200083     -1.73314247
O      -2.59733997      0.45927272     -0.19968631
C      -3.39172075     -0.24783485     -1.15935985
C      -4.74860968     -0.52226208     -0.54091333
H       3.57937045     -1.20363681      1.89881344
H       4.92947185     -0.30461510      1.21837641
H       4.87487497     -2.07572469      1.05043750
H       2.85865559     -1.86735346     -0.44169860
H       4.23362061     -0.97528660     -1.08848959
H       1.07748363      1.94911466     -0.83912882
H       1.39528350      2.19804485      0.89561020
H      -0.76806727      0.98052806      1.41950445
H      -0.99472697      2.49965338      0.51800959
H      -2.90464228     -1.19480896     -1.41781672
H      -3.51281796      0.36363499     -2.06051985
H      -5.39372456     -1.06249049     -1.23937853
H      -4.64257240     -1.11512826      0.37362106
H      -5.23986037      0.41457036     -0.25785965
