28
S=C(Nc1ccccc1)Nc1ccccc1
S      -0.87215245     -1.04548288     -3.39025140
C      -0.15157557     -0.34957582     -2.04869137
N       1.19596586     -0.09937511     -2.15206571
C       2.17645633      0.16904758     -1.17485366
C       3.41114702      0.64923371     -1.62814381
C       4.44111805      0.93085621     -0.72714295
C       4.25193978      0.71629562      0.63523033
C       3.03838452      0.20902605      1.09314945
C       2.00679786     -0.07076686      0.19126335
N      -0.75771682      0.10806441     -0.90703700
C      -2.02264495     -0.15894410     -0.34182167
C      -2.78603740     -1.29306052     -0.62049111
C      -4.01831764     -1.49334943      0.01134680
C      -4.49100147     -0.56869177      0.93895588
C      -3.72670218      0.55326924      1.24428833
C      -2.49591333      0.75184389      0.61297993
H       1.53905849     -0.20558548     -3.10163295
H       3.58244800      0.82707025     -2.68701980
H       5.39093589      1.31485973     -1.09056756
H       5.05372196      0.92932863      1.33765382
H       2.89792088      0.01248273      2.15333557
H       1.10254298     -0.52557608      0.58398367
H      -0.26887132      0.89721216     -0.50172837
H      -2.43883932     -2.06240393     -1.30089407
H      -4.60324805     -2.38033751     -0.21910588
H      -5.44877059     -0.72758347      1.42726128
H      -4.08684893      1.27482867      1.97282119
H      -1.91979759      1.63731406      0.86909139
