44
CCCCSP(=O)(SCCCC)SCCCC
C      -4.02762611     -5.37844085      0.29017872
C      -3.44447595     -4.03780771      0.70765512
C      -2.60434526     -3.41863852     -0.41105561
C      -2.02606880     -2.07446781      0.02224915
S      -1.03383107     -1.35533507     -1.31290199
P      -0.38397890      0.46454439     -0.51024388
O       0.14683098      0.22908614      0.87918996
S       1.12429465      1.26781618     -1.71706448
C       2.67630743      0.68988953     -0.97860895
C       2.86693250     -0.81255393     -1.17086717
C       4.23847253     -1.30312825     -0.69729416
C       4.44500333     -1.16533347      0.80333992
S      -1.99762882      1.79313534     -0.41383742
C      -1.66428014      2.84238269      1.02779530
C      -0.43427323      3.73941487      0.89064873
C      -0.54370430      4.77766615     -0.22851638
C       0.67458687      5.68828357     -0.25770973
H      -4.67647146     -5.26872622     -0.58462535
H      -3.23456404     -6.09135028      0.04292797
H      -4.62381342     -5.80241991      1.10424648
H      -2.82750430     -4.17732979      1.60302010
H      -4.26159851     -3.35916206      0.97886443
H      -1.79435487     -4.10963436     -0.67716097
H      -3.23131101     -3.28977798     -1.30249888
H      -2.83016224     -1.37781078      0.27897498
H      -1.38987720     -2.19924698      0.90419922
H       2.67680469      0.96000072      0.08107437
H       3.49479864      1.23577210     -1.45912074
H       2.08897773     -1.36879627     -0.63587205
H       2.76941392     -1.06466567     -2.23451767
H       5.03210097     -0.76308329     -1.22658546
H       4.34072531     -2.36108634     -0.96708197
H       4.46998082     -0.11572030      1.11032463
H       3.64744078     -1.66982296      1.35786713
H       5.39844753     -1.61798537      1.09410668
H      -2.55190523      3.45951909      1.20327324
H      -1.54875710      2.19377825      1.90219951
H      -0.29871534      4.26696707      1.84374997
H       0.46685558      3.13155678      0.75296342
H      -0.63570422      4.28867147     -1.20386252
H      -1.44360129      5.38643950     -0.08316917
H       1.58958664      5.11278050     -0.43106658
H       0.57836988      6.42408565     -1.06223409
H       0.78262205      6.23053419      0.68704622
