10
Nc1ncn[nH]1
N      -1.68911559     -0.43953888      0.20602469
C      -0.37108968     -0.20137849      0.11498199
N       0.61040081     -1.05461724      0.24993093
C       1.72145100     -0.28232148      0.05548364
N       1.48712400      1.00858283     -0.19683503
N       0.14375079      1.03948491     -0.14015368
H      -1.93894364     -1.42600204      0.21270062
H      -2.34652645      0.11577049     -0.33034767
H       2.72959145     -0.67431251      0.09745567
H      -0.34664270      1.91433240     -0.26924115
