50
CCCCCCCCOC(=O)CCCCCCC
C      -7.96348298      0.28046102      1.19843995
C      -7.01894819     -0.89211309      1.41277323
C      -5.99656844     -1.06696662      0.28781776
C      -5.00106739      0.09106594      0.18783755
C      -3.93822511     -0.18243659     -0.88003516
C      -2.94225123      0.97480963     -0.97900759
C      -1.92241234      0.80369890     -2.11020724
C      -1.00857422     -0.41240322     -1.96468415
O      -0.36044673     -0.42908289     -0.68448294
C       0.78492953      0.30434208     -0.58852226
O       1.27750217      0.96475779     -1.49136405
C       1.32648233      0.20089541      0.81936645
C       2.76244261      0.70792679      0.94972565
C       3.77939932     -0.24526259      0.31406182
C       5.20876005      0.27664194      0.48197941
C       6.22483874     -0.67908755     -0.14740667
C       7.66121170     -0.15372357     -0.10044873
C       8.21736944     -0.03098069      1.30973442
H      -8.47093836      0.20494222      0.23160268
H      -7.43271131      1.23606894      1.23788711
H      -8.72804014      0.29442067      1.98190959
H      -7.61485381     -1.80978502      1.48553459
H      -6.50194044     -0.77354153      2.37209573
H      -6.51949433     -1.18929237     -0.66855683
H      -5.44594614     -1.99864245      0.46797362
H      -5.52864702      1.01871420     -0.06070899
H      -4.51436441      0.24275412      1.15883361
H      -4.42438972     -0.33378717     -1.85129721
H      -3.41105123     -1.11015876     -0.63083869
H      -2.42148268      1.09795151     -0.02185077
H      -3.49226278      1.90759338     -1.15596359
H      -1.30583054      1.71026039     -2.13636787
H      -2.44376282      0.74762058     -3.07295580
H      -1.58760756     -1.33814003     -2.04383923
H      -0.27083950     -0.44345805     -2.77571243
H       1.27164076     -0.84279445      1.14875832
H       0.67337269      0.80276913      1.46138376
H       2.85516023      1.70417086      0.50066531
H       2.99615202      0.81563441      2.01609498
H       3.56146306     -0.37111235     -0.75269030
H       3.69442177     -1.23487526      0.77935685
H       5.42175096      0.40112525      1.54957201
H       5.29525977      1.26499696      0.01473212
H       5.95628210     -0.84696653     -1.19781267
H       6.17370405     -1.65469591      0.35122641
H       7.71939321      0.81948998     -0.60156705
H       8.30047314     -0.84070214     -0.66784942
H       7.68841916      0.73460219      1.88468814
H       9.27370688      0.25427104      1.27293343
H       8.14200372     -0.98197652      1.84635155
