9
O.O.[Ba+2].[Cl-].[Cl-]
O      -0.00439129      0.38636848     -0.00000000
O      -0.00253884      0.37949828     -0.00000000
Ba      0.00000000      0.00000000      0.00000000
Cl      0.00000000      0.00000000      0.00000000
Cl      0.00000000      0.00000000      0.00000000
H       0.80552124     -0.19163390      0.00000000
H      -0.80112995     -0.19473458     -0.00000000
H       0.80301472     -0.18887612      0.00000000
H      -0.80047588     -0.19062216     -0.00000000
