17
O=C(O)c1ccccc1[N+](=O)[O-]
O      -1.36100086      2.59216425     -0.80203935
C      -1.38025843      1.48744431     -0.29646490
O      -2.49224692      0.95597855      0.23338983
C      -0.20942551      0.62200602     -0.07019954
C       0.99279004      1.24798600      0.28797470
C       2.12969242      0.48329614      0.56804230
C       2.07897232     -0.90995454      0.48936022
C       0.89504311     -1.54560739      0.11480459
C      -0.23883992     -0.77066254     -0.17060651
N      -1.42177984     -1.45788275     -0.64901694
O      -1.87421464     -1.10724871     -1.74751116
O      -1.85446608     -2.38624022      0.04744066
H      -3.20014827      1.60727361      0.03705513
H       1.04513945      2.33365683      0.36064522
H       3.05735936      0.97714415      0.85182985
H       2.96727291     -1.49866412      0.71041049
H       0.86611086     -2.63068959      0.03488544
