51
CC1=C(/C=C/C(C)=C/C=C/C(C)=C/CO)C(C)(C)CCC1
C      -2.13772257      1.33546409     -2.86153004
C      -3.10412438      0.42500146     -2.13820696
C      -3.01757301      0.08334120     -0.82842357
C      -1.93621611      0.56812336      0.02646842
C      -0.65268173      0.19861788     -0.12493937
C       0.48525636      0.62529087      0.69433891
C       0.20250922      1.59479295      1.81509638
C       1.70540571      0.13165119      0.39304936
C       2.96653346      0.42602445      1.04764615
C       4.12278461     -0.15261796      0.67977852
C       5.44383723      0.08544526      1.26540159
C       5.54956130      1.09298213      2.38270524
C       6.49650257     -0.60790837      0.78192773
C       7.92901230     -0.51405791      1.19293426
O       8.71971182     -0.61092425      0.01494491
C      -4.04847556     -0.83492255     -0.13591866
C      -4.97911511      0.01966239      0.75405690
C      -3.37525940     -1.90543315      0.75566343
C      -4.89790577     -1.60553280     -1.18187121
C      -5.39195509     -0.70252655     -2.30075217
C      -4.21672150     -0.07259337     -3.03672971
H      -1.56182710      0.76102774     -3.59496258
H      -1.43254440      1.84637513     -2.20174405
H      -2.68517234      2.12166828     -3.39372341
H      -2.24558194      1.22559274      0.83324336
H      -0.42260879     -0.48844084     -0.94006894
H      -0.21462236      2.52755302      1.41819302
H      -0.51344609      1.16321421      2.52415824
H       1.08583876      1.86848177      2.39610793
H       1.78814040     -0.56913917     -0.43955165
H       2.95724796      1.14611508      1.85674759
H       4.09885817     -0.87298199     -0.13878769
H       6.55245493      1.15934507      2.81095942
H       5.28258849      2.09372720      2.02278626
H       4.88164348      0.82629046      3.20986521
H       6.32983247     -1.33189973     -0.01531417
H       8.18619860     -1.34946521      1.85095593
H       8.17785178      0.42965739      1.68293375
H       9.64732671     -0.53531584      0.29501963
H      -5.44004861      0.84136034      0.19483902
H      -5.78637539     -0.58902591      1.17814424
H      -4.43566724      0.46466899      1.59566972
H      -2.65208701     -2.50049679      0.18614132
H      -2.84794107     -1.46085299      1.60769286
H      -4.12083802     -2.59599876      1.16828487
H      -4.30061894     -2.41413970     -1.62713797
H      -5.75600980     -2.08909309     -0.69787361
H      -6.04560118      0.08000821     -1.89842339
H      -5.99828366     -1.28057098     -3.00794895
H      -4.60278444      0.75137115     -3.64812213
H      -3.78928771     -0.80891610     -3.72978485
