41
CC(C)(C)c1cc(CO)cc(C(C)(C)C)c1O
C       2.85570186     -1.87535816     -0.46905384
C       2.66017576     -0.49088958      0.18822539
C       2.82641518     -0.60511311      1.72082293
C       3.84259505      0.38715744     -0.30150946
C       1.26698289      0.08666171     -0.16896423
C       1.15193897      1.26790824     -0.92090793
C      -0.09246263      1.80072421     -1.27004129
C      -0.18045198      3.07931906     -2.06179599
O      -0.31425033      4.19632776     -1.19372374
C      -1.25908640      1.16951045     -0.82238583
C      -1.22818387     -0.00321571     -0.04435557
C      -2.55663636     -0.62076616      0.46449629
C      -2.95243295     -1.80286927     -0.44395934
C      -3.74478445      0.38133727      0.43681730
C      -2.46740850     -1.09439469      1.93544929
C       0.05637630     -0.53915850      0.22736549
O       0.17438332     -1.72850751      0.89294884
H       3.86918005     -2.25534109     -0.29307997
H       2.70539929     -1.81977594     -1.55375015
H       2.16911554     -2.63316603     -0.08199834
H       2.64562942      0.36033304      2.20814009
H       3.84159808     -0.92533206      1.98438584
H       2.14729194     -1.33302063      2.17275764
H       3.85113768      0.48340171     -1.39358078
H       4.80661057     -0.05118397     -0.01524120
H       3.80711902      1.39252032      0.13441981
H       2.03442246      1.80329894     -1.26093177
H      -1.03956863      3.05735968     -2.74058543
H       0.71464939      3.22220078     -2.67629822
H      -0.18654559      3.88093747     -0.28218045
H      -2.20230549      1.63525252     -1.09686745
H      -2.21382392     -2.60907169     -0.43421846
H      -3.90801528     -2.23843111     -0.12905345
H      -3.06287980     -1.47980309     -1.48607858
H      -3.51205528      1.29310475      0.99937043
H      -4.02175253      0.66586397     -0.58456732
H      -4.64597866     -0.05779857      0.88234572
H      -1.86381315     -1.99621487      2.06258201
H      -2.04810972     -0.31109322      2.57747189
H      -3.45826285     -1.35013404      2.33055660
H      -0.46791439     -2.34258034      0.50697323
