37
CCCCCCCC(=O)Oc1c(Br)cc(C#N)cc1Br
C      -6.75581052      0.48906114      0.85012382
C      -5.31858795      0.97541749      0.75346902
C      -4.37600597     -0.14596494      0.31730558
C      -2.93143918      0.34743536      0.22133718
C      -1.98796192     -0.77463641     -0.21500992
C      -0.54454431     -0.28082009     -0.31054866
C       0.39707784     -1.39859915     -0.74193249
C       1.80697560     -0.88557658     -0.88956927
O       2.33952959     -0.63303126     -1.96282022
O       2.38012723     -0.74168330      0.36921163
C       3.69263338     -0.26771431      0.29120313
C       3.94262532      1.10843757      0.33425695
Br      2.53794003      2.37224595      0.49463175
C       5.25558607      1.58083044      0.26893664
C       6.32005632      0.67645772      0.17441993
C       7.66783671      1.16121479      0.10821712
N       8.75860591      1.55320374      0.06029897
C       6.07075806     -0.70096781      0.15602749
C       4.75767504     -1.17276700      0.22133979
Br      4.47264933     -3.04765848      0.22636701
H      -7.41240049      1.30676712      1.16342404
H      -6.84785509     -0.31992798      1.58183398
H      -7.11093830      0.11983529     -0.11729098
H      -5.26698053      1.80468540      0.03837715
H      -5.00535481      1.36735677      1.72813549
H      -4.43453182     -0.97453975      1.03362033
H      -4.69615405     -0.53725093     -0.65607451
H      -2.87299224      1.17587114     -0.49511580
H      -2.61147226      0.73866329      1.19478581
H      -2.04585677     -1.60304301      0.50150815
H      -2.30780155     -1.16576329     -1.18850625
H      -0.22684842      0.11780324      0.66077956
H      -0.48213867      0.54976891     -1.02477425
H       0.08776925     -1.81561125     -1.70744900
H       0.39385463     -2.22834713     -0.02589591
H       5.45286014      2.65163825      0.29303744
H       6.90111441     -1.40279094      0.09245001
