8
FC(F)(F)C(F)(Cl)Cl
F       1.51333618     -0.84366122      0.58985433
C       0.79030842      0.06542157     -0.11254620
F       1.07504391     -0.13638428     -1.42398664
F       1.28305101      1.28793683      0.21184300
C      -0.71374861     -0.04470484      0.18272733
F      -0.94531701      0.16606730      1.51233738
Cl     -1.34743961     -1.67186360     -0.22749317
Cl     -1.65523429      1.17718824     -0.73273603
