35
CCCCNC(=O)NS(=O)(=O)c1ccc(N)cc1
C       3.48307283      2.31762923      0.38573323
C       3.29763403      0.90463824      0.91654072
C       3.13657689     -0.10332354     -0.22356951
C       2.99676193     -1.54025117      0.27971821
N       1.78890147     -1.74609514      1.05092057
C       0.57825348     -1.94738697      0.45470487
O       0.41566228     -2.01426876     -0.75179096
N      -0.44827131     -2.03939977      1.37617765
S      -2.04844158     -2.27752769      1.00162745
O      -2.18586946     -3.41832405      0.12530380
O      -2.74125791     -2.23986138      2.27515850
C      -2.48950592     -0.80237249      0.12003651
C      -2.93201342      0.31901214      0.82538051
C      -3.30171122      1.47069799      0.12509908
C      -3.28209772      1.49552031     -1.27325082
N      -3.53526232      2.68911056     -1.95846278
C      -2.79618209      0.37906951     -1.96114921
C      -2.42799402     -0.78043664     -1.27364017
H       4.37640009      2.38666991     -0.24315685
H       3.59669768      3.02225691      1.21549788
H       2.61856873      2.62956294     -0.20900370
H       4.16395034      0.63512849      1.53171135
H       2.41687826      0.88394336      1.56829333
H       4.01415544     -0.04863777     -0.87918045
H       2.26496270      0.16797717     -0.83150112
H       2.98692258     -2.22641864     -0.57461552
H       3.84358461     -1.81068050      0.91914689
H       1.83368498     -1.64435510      2.05163974
H      -0.28576318     -1.94862128      2.36830411
H      -2.98628518      0.31108136      1.91109777
H      -3.61258374      2.35115169      0.68178013
H      -4.16920110      3.31614194     -1.47325140
H      -3.79758559      2.55501352     -2.93038555
H      -2.70172520      0.39994670     -3.04397494
H      -2.07091736     -1.64659109     -1.82793891
