27
COC(=O)/C=C(\C)OP(=O)(OC)OC
C       5.19749938     -0.69058439      1.29826691
O       3.90745917     -0.07927338      1.34013012
C       3.01542852     -0.62115114      0.47021524
O       3.23460648     -1.53651654     -0.30235115
C       1.74124834      0.11324784      0.62678896
C       0.55510469     -0.21086513      0.08852637
C       0.25165472     -1.41360503     -0.75773976
O      -0.50692613      0.65656273      0.34061181
P      -2.04868844      0.49559225     -0.11157383
O      -2.28809748      0.29018208     -1.57559190
O      -2.61156945     -0.67199799      0.84690117
C      -3.95587239     -1.05590756      0.64708338
O      -2.74672635      1.81849158      0.49443243
C      -2.47983363      3.03224846     -0.17745627
H       5.12918235     -1.74973830      1.56584682
H       5.83407538     -0.18876478      2.03224248
H       5.64781433     -0.56827945      0.30816874
H       1.81033236      1.00961673      1.23630603
H       0.07247446     -1.10946831     -1.79341622
H       1.04738552     -2.15937786     -0.76212487
H      -0.63776682     -1.93179407     -0.38717985
H      -4.07603936     -1.49744915     -0.34581339
H      -4.22354520     -1.80180849      1.39962290
H      -4.61894498     -0.19311049      0.75338983
H      -1.40263119      3.21413020     -0.22224292
H      -2.89420537      3.00029271     -1.18862228
H      -2.95341889      3.84932749      0.37247516
