33
CN1C(C(=O)Nc2ccccn2)=C(O)c2sccc2S1(=O)=O
C      -0.93135119     -2.09430065     -0.58243309
N      -1.00213070     -0.64751238     -0.92599598
C      -0.76550196      0.25210690      0.20382790
C       0.66266048      0.55799780      0.56586779
O       0.92171245      1.12639699      1.62307375
N       1.54943415      0.14243680     -0.39027536
C       2.93810922      0.23673378     -0.39595610
C       3.68567195      0.80343731      0.62663291
C       5.07431543      0.83672325      0.50326929
C       5.67246297      0.30553716     -0.63111820
C       4.85097632     -0.24133766     -1.59960548
N       3.50341415     -0.28859761     -1.50386997
C      -1.78685116      0.72825433      0.95776045
O      -1.61841441      1.50838730      2.08692622
C      -3.15063732      0.48778439      0.59846246
S      -4.49289754      0.70605827      1.64693350
C      -5.61465744      0.23703434      0.43534386
C      -4.99591831     -0.08541166     -0.75226805
C      -3.59319709      0.06291934     -0.63500902
S      -2.39840305     -0.22653798     -1.83235387
O      -2.19116911      1.06769715     -2.44038512
O      -2.87517614     -1.37703562     -2.56541038
H      -1.80748890     -2.41072050     -0.00815103
H      -0.03733837     -2.30178160      0.01488300
H      -0.85156393     -2.69136125     -1.49578458
H       1.17889499     -0.28037316     -1.23389957
H       3.22905219      1.22324377      1.51429441
H       5.68061668      1.27788171      1.28963943
H       6.74911926      0.31875807     -0.75740219
H       5.26568103     -0.66961151     -2.50783889
H      -0.65664091      1.61843358      2.25713556
H      -6.67333012      0.22425689      0.65783302
H      -5.51945361     -0.40749755     -1.64469176
