14
O=Cc1ccccc1Cl
O       2.65425116     -1.64988712      0.47341381
C       2.27663363     -0.51069429      0.21936305
C       0.84152743     -0.18219709      0.07972824
C      -0.09575133     -1.21317640      0.24563066
C      -1.46112478     -0.95124191      0.12322342
C      -1.89816424      0.33962058     -0.16510851
C      -0.97035390      1.36963575     -0.33128473
C       0.40053379      1.11396189     -0.20989563
Cl      1.47659451      2.44684855     -0.43117185
H       3.00893562      0.30055596      0.08855780
H       0.23599394     -2.22578072      0.47125643
H      -2.18175340     -1.75577662      0.25322594
H      -2.96212674      0.54496095     -0.26074645
H      -1.32519571      2.37317048     -0.55619219
