27
CCNC(=O)CSP(=S)(OC)OC
C       2.93687526     -1.12070879      1.60605925
C       1.60531463     -0.42509174      1.39040157
N       1.40922294     -0.06275349      0.00228153
C       0.91256595     -0.96261307     -0.91781857
O       0.64066483     -2.12765031     -0.64002204
C       0.70815895     -0.38689409     -2.30760348
S      -1.04968116     -0.31078951     -2.72191195
P      -1.91228245      0.76012420     -1.12765144
S      -3.69717568      1.50496595     -1.38515837
O      -1.79202242     -0.14187901      0.21685670
C      -2.53024617     -1.34579178      0.30525989
O      -0.80809580      1.90651578     -0.76187379
C      -1.03978201      2.74587197      0.35539390
H       3.07464024     -1.36071823      2.66471380
H       2.99529645     -2.05212160      1.03357828
H       3.76717697     -0.48171459      1.28744350
H       0.78336883     -1.07229568      1.71436239
H       1.56412010      0.49877232      1.97608419
H       1.47481571      0.91719438     -0.24684977
H       1.22908424     -1.02782241     -3.02544020
H       1.14001868      0.61512398     -2.38596212
H      -2.46367695     -1.92213296     -0.62029517
H      -2.11739752     -1.94569577      1.12038921
H      -3.57658090     -1.12474295      0.52999162
H      -0.08668918      3.18869344      0.65627279
H      -1.44256039      2.18283290      1.20118365
H      -1.72513315      3.55132104      0.08031464
