10
N#CN=C(N)N
N       0.50462724     -0.98526838     -2.86285944
C       0.61847357     -0.25879115     -1.96654952
N       0.71356452      0.55918717     -0.91442284
C       0.07825269      0.23922273      0.15843726
N       0.14375656      1.02795984      1.25910527
N      -0.70543627     -0.83560107      0.42701201
H       0.28731527      0.49990673      2.11268022
H       0.85710618      1.74474406      1.15861539
H      -1.50605093     -0.60700279      1.00699641
H      -0.99160883     -1.38435716     -0.37901477
