13
CCCC=O
C      -1.78307820      0.12871404      0.12424530
C      -0.41809428     -0.52780890     -0.00099606
C       0.70656491      0.49371501      0.11994330
C       2.07498254     -0.13243199     -0.00102601
O       2.28387970     -1.32789663     -0.17725461
H      -2.57452662     -0.62194328      0.03458199
H      -1.93272062      0.87566285     -0.66190229
H      -1.89274505      0.62372462      1.09444622
H      -0.35207273     -1.04467213     -0.96588050
H      -0.31243279     -1.29451914      0.77585612
H       0.62103738      1.25216326     -0.66570618
H       0.66100082      1.00030149      1.09004545
H       2.91820493      0.57499081      0.08124663
