30
O=C1Nc2ccc(Cl)cc2[C@@](C#CC2CC2)(C(F)(F)F)O1
O      -1.77389082     -3.52637765     -2.16551103
C      -1.58144013     -2.48136322     -1.55707782
N      -2.58750517     -1.57811074     -1.36702678
C      -2.42263994     -0.33405624     -0.77606216
C      -3.44645497      0.61143637     -0.83676964
C      -3.26479585      1.86106526     -0.24362582
C      -2.07040589      2.14666652      0.41437320
Cl     -1.84998882      3.68299517      1.15517197
C      -1.05663681      1.18995077      0.48958545
C      -1.22508587     -0.06721730     -0.11751634
C      -0.22224031     -1.20527275     -0.00396910
C       1.17189474     -0.69454352     -0.06923694
C       2.29704486     -0.27614257     -0.11914515
C       3.63542593      0.23121553     -0.17443500
C       4.18788588      0.94279179      1.03258381
C       3.84059932      1.72315649     -0.20166443
C      -0.44262785     -1.97970671      1.32762629
F       0.41561646     -3.02096550      1.46047514
F      -1.69524417     -2.49411339      1.41642167
F      -0.26921221     -1.18446883      2.41410497
O      -0.35215290     -2.12857630     -1.11377153
H      -3.46324787     -1.82590856     -1.81066755
H      -4.38127519      0.39494625     -1.34729717
H      -4.05650844      2.60440078     -0.29489346
H      -0.14524224      1.42730205      1.03584944
H       4.33735161     -0.36637367     -0.74960286
H       3.55597218      1.06470601      1.90517472
H       5.23689873      0.79981418      1.26606894
H       2.97368969      2.37324317     -0.16409067
H       4.65421605      2.10950659     -0.80507214
