66
CCCCC(CC)COC(=O)CC(C(=O)OCC(CC)CCCC)S(=O)(=O)[O-].[Na+]
C      -8.08871637     -0.47189766     -2.81820334
C      -7.51435275      0.53292224     -1.83253306
C      -6.10334975      0.14024222     -1.39023162
C      -5.53379845      1.15415106     -0.39141246
C      -4.04977616      0.91538639     -0.03860313
C      -3.49961957      2.04720810      0.86288416
C      -3.45185612      3.41015952      0.18520610
C      -3.84296987     -0.44393879      0.65799679
O      -2.44775067     -0.69695705      0.89301771
C      -1.77620179     -1.31247365     -0.12143640
O      -2.30287583     -1.78214088     -1.12310304
C      -0.32842030     -1.51466212      0.23731459
C       0.33703671     -0.24937936      0.75300913
C       1.57101346     -0.57990605      1.52795097
O       1.68185581     -0.38193003      2.73789021
O       2.50493342     -1.24270707      0.79332794
C       3.75545727     -1.45076199      1.45788573
C       4.78826826     -1.99116665      0.45349440
C       6.18488647     -2.13509724      1.08958712
C       6.23601828     -3.15629625      2.21808692
C       4.85348752     -1.16111735     -0.85101231
C       5.16217538      0.32721656     -0.66013328
C       5.20507250      1.05751706     -2.00400010
C       5.48840104      2.54032084     -1.82360682
S       0.70747301      0.90963565     -0.52323129
O      -0.61870572      1.35549760     -0.94652514
O       1.49750031      1.93735021      0.14943431
O       1.42864914      0.14182058     -1.53335451
Na      0.00000000      0.00000000      0.00000000
H      -7.46880294     -0.53718027     -3.71800993
H      -8.15122659     -1.46887273     -2.37065316
H      -9.09671040     -0.17150147     -3.12085005
H      -8.17345632      0.59765396     -0.95910430
H      -7.49668627      1.52402669     -2.30046063
H      -6.14139734     -0.85690389     -0.93934854
H      -5.44830363      0.07911292     -2.26753789
H      -6.13782508      1.14197947      0.52451696
H      -5.64654767      2.15195242     -0.82918949
H      -3.46467076      0.91888151     -0.96725528
H      -4.10140611      2.12261937      1.77702241
H      -2.47977236      1.80349403      1.18164302
H      -4.45385321      3.80772399      0.00217118
H      -2.91703487      3.35840117     -0.76807626
H      -2.92947782      4.12726959      0.82698479
H      -4.28304433     -1.27406303      0.09712859
H      -4.33363313     -0.44123364      1.63826603
H      -0.29891683     -2.30833667      0.99459561
H       0.18748948     -1.90716091     -0.64637033
H      -0.31820602      0.29017625      1.44854453
H       3.59749315     -2.17934918      2.26078416
H       4.10776365     -0.51100105      1.90009701
H       4.45150092     -2.99166974      0.14729998
H       6.90159158     -2.44501425      0.31922761
H       6.53123927     -1.16916895      1.47463906
H       7.26883983     -3.28852445      2.55665758
H       5.86215115     -4.12949969      1.88527183
H       5.64619146     -2.83284482      3.08044440
H       3.89940730     -1.26243492     -1.38300129
H       5.60976040     -1.60264312     -1.51311766
H       6.12509404      0.44989913     -0.15259030
H       4.39875816      0.79277841     -0.02764065
H       5.98038775      0.61794957     -2.64213752
H       4.24856105      0.93690010     -2.52517315
H       6.45375617      2.69883441     -1.33215905
H       4.71127944      3.01708961     -1.21756514
H       5.51587169      3.04166429     -2.79614152
