15
C/C(=C\C(=O)O)C(=O)O
C       0.45854143      1.51487223      0.65003224
C       0.49457155      0.15600149      0.01259371
C      -0.56225415     -0.64597551     -0.21668491
C      -1.94183100     -0.34441329      0.18793117
O      -2.33986334      0.54611034      0.91065642
O      -2.78067500     -1.23888243     -0.36023745
C       1.84791867     -0.29216412     -0.39720921
O       2.88524585      0.31116057     -0.18711750
O       1.86253900     -1.46555959     -1.05112781
H       0.67410860      1.43692540      1.72028732
H       1.20155342      2.18264727      0.19972677
H      -0.50211483      2.01875513      0.51967956
H      -0.44712965     -1.60731199     -0.70829166
H      -3.66344744     -0.96416480     -0.03499701
H       2.81283689     -1.60800071     -1.24524165
