14
Nc1ccc(Cl)cc1Cl
N      -2.16081923     -0.85357367     -0.38091904
C      -0.87901100     -0.35396388     -0.09299113
C       0.19038975     -1.25044788      0.01488722
C       1.49858209     -0.78542189      0.17776767
C       1.75056632      0.58463724      0.19627311
Cl      3.36251737      1.15231632      0.39479085
C       0.71114605      1.49620134      0.04137077
C      -0.59289696      1.02483805     -0.12145135
Cl     -1.86346182      2.18187371     -0.32625182
H      -2.35872888     -1.76552521      0.01757943
H      -2.89865796     -0.17468445     -0.20158195
H       0.01287285     -2.32217565     -0.03259070
H       2.31435500     -1.49734661      0.27489721
H       0.91314638      2.56327260      0.03821974
