6
[Br-].[NH4+]
Br      0.00000000      0.00000000      0.00000000
N       0.00000000      0.00000001     -0.00000001
H      -0.51131808     -0.78958553     -0.41151439
H      -0.47890374      0.87742557     -0.23454467
H       0.03435996     -0.10899157      1.02038023
H       0.95586186      0.02115152     -0.37432115
