14
CCCCBr
C      -1.95062479      0.05098520      0.31678028
C      -0.61639260     -0.53512751     -0.11667326
C       0.52740751      0.45526375      0.09880681
C       1.85469956     -0.14122515     -0.33767804
Br      3.28404320      1.14838998     -0.04796238
H      -2.75402471     -0.67420317      0.15380846
H      -2.18684914      0.95396195     -0.25520277
H      -1.93808961      0.31087472      1.38009293
H      -0.42571084     -1.45339776      0.45098837
H      -0.67311915     -0.81380828     -1.17541707
H       0.32657739      1.37554416     -0.46409784
H       0.57336512      0.73756583      1.15819512
H       2.11455822     -1.03106853      0.24219295
H       1.86415985     -0.38375518     -1.40383357
