17
Cc1cccc(C)n1
C      -2.46284062     -0.93565113     -0.02963068
C      -1.16657943     -0.18308655     -0.00850128
C      -1.16676945      1.20731703      0.02108003
C       0.05243391      1.87532517      0.04010577
C       1.23240205      1.14006447      0.02912099
C       1.15452204     -0.24815066     -0.00072148
C       2.40670258     -1.07215211     -0.01330827
N      -0.02551784     -0.91265841     -0.01951841
H      -2.28626830     -2.01586720     -0.05191659
H      -3.04883834     -0.70463971      0.86535159
H      -3.04179523     -0.66668451     -0.91857456
H      -2.09818403      1.76349581      0.02923590
H       0.08277961      2.96064656      0.06331661
H       2.19343471      1.64319503      0.04361937
H       2.17004862     -2.14078483     -0.03697583
H       3.00575589     -0.83620899     -0.89830471
H       2.99871383     -0.87415996      0.88562157
