17
NC(=O)NC1NC(=O)NC1=O
N       3.13511329      0.00466126     -0.15210202
C       1.92673733     -0.19048415     -0.73552820
O       1.79538356     -0.26274024     -1.94640221
N       0.92593134     -0.31130086      0.17861609
C      -0.42423579     -0.32481461     -0.29354946
N      -1.28274346     -0.96839407      0.65033300
C      -2.38458970     -0.20634749      0.94765895
O      -3.31996709     -0.57232074      1.63553190
N      -2.25208971      1.00487787      0.36156319
C      -1.08658628      1.07346917     -0.34100036
O      -0.65860943      2.08296301     -0.87856642
H       3.89914171     -0.01758645     -0.81780930
H       3.31482901     -0.51299085      0.69626475
H       1.08773774      0.20157399      1.03159907
H      -0.52923041     -0.81706530     -1.26575114
H      -1.25321171     -1.95216491      0.87494147
H      -2.89361041      1.76866435      0.48763902
