10
CC(C)=O
C      -1.26700703      0.07036983     -0.24358702
C       0.00915052      0.38046212      0.49097730
C       1.26205512     -0.27626312     -0.02211319
O       0.02726962      1.13382647      1.46317518
H      -2.09986299      0.60420695      0.22241634
H      -1.46497222     -1.00328354     -0.19671916
H      -1.17841413      0.39283157     -1.28391808
H       2.11503290      0.02651637      0.59151854
H       1.15509539     -1.36238972      0.03272560
H       1.44165283      0.03372306     -1.05447552
