75
CCCCCCCCCCCCCCCCCCCCCCCCO
C      12.49923161     -0.86674939      0.41883762
C      11.04892006     -0.77078472     -0.02780654
C      10.14049005     -0.31711878      1.11490422
C       8.68022142     -0.22776139      0.66486851
C       7.77525194      0.22106646      1.81416767
C       6.31176439      0.40827075      1.40143514
C       5.63555147     -0.89434223      0.96515455
C       4.11605957     -0.76740969      0.81726374
C       3.68931917      0.18839649     -0.29906603
C       2.16576191      0.21257472     -0.45205079
C       1.73269959      1.16829224     -1.56627326
C       0.21358726      1.34860711     -1.65153470
C      -0.52836533      0.06857680     -2.04503224
C      -2.02098423      0.29223865     -2.31161894
C      -2.79871587      0.72876432     -1.06674452
C      -4.30051543      0.80748885     -1.35215742
C      -5.11231638      1.37175973     -0.18209621
C      -5.02676911      0.58173561      1.12764247
C      -5.44071975     -0.89049448      1.04198973
C      -6.85508907     -1.15078646      0.51233194
C      -7.94883804     -0.49254260      1.35739862
C      -9.36439609     -0.92968930      0.96588190
C      -9.76805840     -0.49018286     -0.44530671
C     -11.20715845     -0.87360753     -0.77432481
O     -12.12018993     -0.20014102      0.08061400
H      12.87275551      0.10736118      0.75054987
H      12.60931057     -1.57636876      1.24500229
H      13.12813334     -1.20803155     -0.40915666
H      10.97617958     -0.06531816     -0.86416909
H      10.72125092     -1.74971454     -0.39818383
H      10.22399149     -1.02234283      1.95154232
H      10.47375768      0.66165296      1.48234647
H       8.35941908     -1.20790891      0.29499911
H       8.59462255      0.47946771     -0.16860593
H       8.14404685      1.17588862      2.20906228
H       7.83391899     -0.50299955      2.63600859
H       6.25797130      1.14907123      0.59563585
H       5.76819821      0.82801485      2.25676449
H       6.06082068     -1.24017810      0.01611600
H       5.84106255     -1.67375066      1.70925646
H       3.70788927     -1.76477398      0.61051211
H       3.68109405     -0.44117097      1.76994423
H       4.14943802     -0.12026316     -1.24536715
H       4.04236024      1.20217096     -0.08018297
H       1.81104071     -0.80059078     -0.67029229
H       1.70890782      0.52060740      0.49621213
H       2.18332079      2.15330422     -1.39092048
H       2.11790081      0.81326473     -2.52984857
H      -0.15474921      1.71764239     -0.68790437
H       0.00133826      2.12830031     -2.39323698
H      -0.07535148     -0.34279164     -2.95551456
H      -0.41578699     -0.69020788     -1.26223587
H      -2.44538121     -0.64657958     -2.68908620
H      -2.14568674      1.03748862     -3.10702738
H      -2.44676467      1.71006369     -0.73000922
H      -2.60830774      0.01601832     -0.25654651
H      -4.67838968     -0.18288646     -1.63007885
H      -4.46606302      1.45572780     -2.22205221
H      -4.77845123      2.39832158      0.01518068
H      -6.16100873      1.45251061     -0.49164812
H      -5.64579248      1.08840302      1.87801922
H      -4.00219853      0.63143614      1.51535265
H      -5.35234258     -1.33009724      2.04387446
H      -4.72620289     -1.43453257      0.41263416
H      -6.92394156     -0.81360407     -0.52700853
H      -7.01701791     -2.23568029      0.49760465
H      -7.79145064     -0.75013333      2.41194801
H      -7.87923031      0.59849138      1.28378034
H     -10.06315922     -0.50166073      1.69497359
H      -9.44861004     -2.01988283      1.05144589
H      -9.10784285     -0.95074390     -1.18760351
H      -9.65398717      0.59729775     -0.52530896
H     -11.36075752     -1.95068471     -0.65817521
H     -11.44655972     -0.60747836     -1.80852620
H     -11.99043748      0.75410773     -0.04855415
