19
O=C(O)CNC(=O)c1ccco1
O       2.61429723     -1.60439629      3.43769138
C       2.14409390     -0.96141689      2.50696566
O       2.37725459      0.36213635      2.37212170
C       1.37545355     -1.61379275      1.35697813
N       0.26596677     -0.85775521      0.79312341
C       0.44871989      0.21827016     -0.04242018
O       1.53630493      0.79326743     -0.07746135
C      -0.71617473      0.60887619     -0.80079728
C      -0.91923237      1.64439201     -1.69259283
C      -2.25972815      1.54284439     -2.13604298
C      -2.79465359      0.45270912     -1.49185591
O      -1.86969696     -0.12366510     -0.68130888
H       2.11409999      0.70791445      1.48657900
H       2.08804349     -1.84079469      0.55718269
H       0.94925747     -2.55074407      1.73017610
H      -0.63160941     -1.32517092      0.70859732
H      -0.18089396      2.38095490     -1.98082999
H      -2.77336462      2.18504795     -2.83822117
H      -3.76813800     -0.01867703     -1.50196651
