51
CSc1ccc2c(c1)N(CCC1CCCCN1C)c1ccccc1S2
C       4.96939072     -3.97028825      0.06492764
S       3.17541611     -3.73188775     -0.04834731
C       3.03625577     -2.02909036      0.47281811
C       3.63008833     -1.55932314      1.64067345
C       3.48450222     -0.21987098      2.00336266
C       2.72644217      0.66317506      1.21736316
C       2.08155924      0.20173555      0.05593512
C       2.27218659     -1.14936555     -0.30466663
N       1.29922798      1.06123551     -0.76812002
C      -0.04545628      0.51243354     -1.10763764
C      -1.00065551      0.56572661      0.09683584
C      -2.39588911     -0.00343725     -0.23312173
C      -3.34853080      0.19463427      0.96405932
C      -4.76053783     -0.28747940      0.63983832
C      -4.74871876     -1.70497056      0.07927519
C      -3.74754658     -1.83880273     -1.06985503
N      -2.38524985     -1.39910206     -0.72507937
C      -1.73322109     -2.35651947      0.17265567
C       1.35230536      2.48223410     -0.71466605
C       0.88409400      3.25111835     -1.80064396
C       0.93083690      4.64797113     -1.78852183
C       1.45897749      5.31231443     -0.69043233
C       1.95743798      4.57629849      0.38256746
C       1.92139179      3.17091643      0.37271397
S       2.58902998      2.33960063      1.80039634
H       5.22710383     -4.93227768     -0.38695164
H       5.50250366     -3.18063364     -0.47403047
H       5.29534864     -3.98552396      1.10874494
H       4.20659343     -2.21938188      2.28181967
H       3.96803162      0.13176250      2.91328337
H       1.84396385     -1.52327508     -1.23088942
H       0.03898233     -0.51056121     -1.48439250
H      -0.49787400      1.05453231     -1.94611105
H      -0.56947433      0.04508919      0.96021903
H      -1.11710740      1.61296233      0.40984542
H      -2.78375261      0.61455965     -1.05593341
H      -2.97279623     -0.33297886      1.85015795
H      -3.39256000      1.25830423      1.23157060
H      -5.38586130     -0.24454391      1.53828640
H      -5.21323747      0.38986880     -0.09736276
H      -4.50510264     -2.41497715      0.87734234
H      -5.75191990     -1.96658950     -0.27592834
H      -3.73251132     -2.87448160     -1.42963319
H      -4.09954208     -1.24171177     -1.92226680
H      -2.19027987     -2.39802712      1.16679791
H      -0.67129660     -2.12604318      0.29589695
H      -1.76767610     -3.36504225     -0.25641540
H       0.50805680      2.76463391     -2.69706089
H       0.56726265      5.20965684     -2.64505743
H       1.50149688      6.39843596     -0.67388172
H       2.38831131      5.10698649      1.22962010
