20
O=[N+]([O-])c1cccc2ccccc12
O      -1.11643549      2.93264165     -1.04927008
N      -1.61799732      2.22969654     -0.16161206
O      -2.41528212      2.62227484      0.70142106
C      -1.27219194      0.81920800     -0.14613354
C      -2.33249554     -0.08734326     -0.29127911
C      -2.06097394     -1.44861175     -0.29239088
C      -0.74534329     -1.89139579     -0.14607527
C       0.32245670     -0.98733878      0.00941619
C       1.63284845     -1.46868094      0.16433022
C       2.70648940     -0.59501369      0.32978813
C       2.48545137      0.77522216      0.34453303
C       1.19002386      1.27275267      0.19103813
C       0.07760690      0.40813354      0.01452181
H      -3.35682397      0.26147395     -0.40337517
H      -2.86795272     -2.16881618     -0.40570894
H      -0.55612186     -2.96430704     -0.14951205
H       1.83058615     -2.53913144      0.15936762
H       3.71375824     -0.98634932      0.44817383
H       3.31902205      1.46133183      0.47400300
H       1.06337506      2.35425299      0.20876408
