23
COc1ccc(/C=C/C(=O)O)cc1
C      -4.20434575      0.44679960     -1.25010993
O      -3.64005894     -0.03321746     -0.03644386
C      -2.27639596     -0.10967416      0.02355220
C      -1.38819995      0.23083311     -0.99535988
C      -0.00631936      0.10344809     -0.79899465
C       0.50658784     -0.35597724      0.42049827
C       1.94556505     -0.53142463      0.65709099
C       2.89262109      0.27932500      0.16204228
C       4.30415034      0.02224008      0.47229585
O       4.76318084     -0.86923787      1.15924009
O       5.08145379      0.93816554     -0.12681603
C      -0.39188092     -0.71179844      1.43182462
C      -1.77021403     -0.58319378      1.23488150
H      -3.88687407      1.47479185     -1.45396089
H      -3.96179481     -0.21598565     -2.08733824
H      -5.29243445      0.45149020     -1.13399748
H      -1.73356587      0.59292409     -1.95782039
H       0.65895049      0.35771244     -1.62064070
H       2.22312611     -1.36855184      1.29643882
H       2.67358900      1.14067799     -0.45558696
H       5.98912347      0.68291928      0.13989777
H      -0.03135905     -1.08542215      2.38773887
H      -2.45490487     -0.85684407      2.03406342
