20
CC(C)(S)C(N)C(=O)O
C      -0.59661732     -0.66052315     -1.27251218
C      -0.62728018      0.23021750     -0.02120186
C      -1.71913940     -0.25870550      0.94386549
S      -1.14446269      1.92897752     -0.57618242
C       0.75921930      0.34567366      0.68550225
N       1.80104511      1.10209212     -0.10414814
C       1.37763258     -1.02254447      1.05084843
O       0.78084564     -1.99102668      1.48939859
O       2.72349917     -1.01438848      0.84717591
H      -1.57948697     -0.70738584     -1.75732010
H      -0.32488984     -1.69083442     -1.01849995
H       0.12315429     -0.30822408     -2.01903787
H      -1.75466958      0.34988107      1.85499614
H      -2.71355037     -0.23091258      0.48162650
H      -1.55419769     -1.29602512      1.24985406
H      -2.33798166      1.57716794     -1.08014965
H       0.65081270      0.88059945      1.63837672
H       1.73708318      0.80206178     -1.08319296
H       1.46334209      2.07303443     -0.15032826
H       2.93564166     -0.10913514      0.50110218
