23
CCCCCCC
C      -3.76375646     -0.09576957     -0.68445601
C      -2.51053905     -0.53572396      0.05540830
C      -1.25715697      0.11391117     -0.53045750
C       0.00120262     -0.33122333      0.21654865
C       1.25558623      0.31881592     -0.36962733
C       2.51294173     -0.12608837      0.37693077
C       3.76222396      0.51793363     -0.20276067
H      -3.71343708     -0.37477686     -1.74179208
H      -4.64779124     -0.57212092     -0.24915881
H      -3.89638593      0.98899418     -0.62094735
H      -2.60686850     -0.27094224      1.11480264
H      -2.42493304     -1.62720100      0.00014617
H      -1.16780412     -0.15068514     -1.59115397
H      -1.34973041      1.20551350     -0.47654734
H       0.09368030     -1.42279889      0.16241438
H      -0.08827408     -0.06644557      1.27716453
H       1.16322833      1.41043533     -0.31569261
H       1.34515978      0.05424835     -1.43031204
H       2.43033050      0.13980414      1.43720473
H       2.61226881     -1.21644602      0.32253923
H       3.70895521      1.60916911     -0.13417537
H       4.64919230      0.18600193      0.34589276
H       3.89190711      0.24539463     -1.25501592
