20
NC1(C(=O)O)CCCC1
N       1.63352749      0.72720153      0.86014893
C       0.60400681      0.15380582     -0.05409769
C       1.34203388     -0.35836666     -1.32098969
O       0.82931752     -0.63275776     -2.39337126
O       2.67603378     -0.48498093     -1.08039023
C      -0.48705968      1.16691611     -0.39488441
C      -1.71766222      0.32678342     -0.74255217
C      -1.46583439     -1.07389368     -0.18323241
C      -0.16582157     -0.98574379      0.61173932
H       1.20054668      0.87960534      1.77592941
H       1.85381245      1.67469175      0.53161030
H       2.80543782     -0.18022783     -0.14676477
H      -0.21239926      1.83524914     -1.21803064
H      -0.72430090      1.79374432      0.47450772
H      -2.62303608      0.77049570     -0.31483991
H      -1.86263048      0.27873151     -1.82764913
H      -2.29622429     -1.41899626      0.44098653
H      -1.36012137     -1.78938593     -1.00703638
H       0.37474380     -1.93823049      0.60291802
H      -0.40437000     -0.74464131      1.65561870
