30
COP(=S)(Oc1cc(Cl)c(Br)cc1Cl)c1ccccc1
C       0.91620130     -2.51971058      1.48120435
O       0.18444333     -1.67538991      0.61123885
P       0.26291374     -0.06097137      0.83873606
S      -0.36476860      0.49464284      2.60878272
O      -0.67709221      0.44067119     -0.39864206
C      -2.04351076      0.37537664     -0.35171066
C      -2.68954120     -0.85954469     -0.38212946
C      -4.08663289     -0.91534860     -0.34832285
Cl     -4.82043089     -2.47902178     -0.38249066
C      -4.83257683      0.26940465     -0.29606913
Br     -6.73130100      0.28295117     -0.24824663
C      -4.18057624      1.50702038     -0.28568422
C      -2.78710620      1.55822251     -0.32027036
Cl     -2.01169522      3.09928985     -0.32029053
C       1.90362946      0.36149045      0.25095341
C       2.75610473      1.19529354      0.98993332
C       4.03106919      1.50954579      0.51499760
C       4.46927960      0.99669859     -0.70398089
C       3.63420138      0.17044382     -1.45192631
C       2.35994872     -0.14417978     -0.97839202
H       0.34742693     -2.68490074      2.39962956
H       1.89359602     -2.09296726      1.72075400
H       1.06625008     -3.48196650      0.98506896
H      -2.11401372     -1.77937303     -0.43984404
H      -4.75365612      2.43058875     -0.25111314
H       2.43518435      1.61238418      1.94269541
H       4.68212564      2.15856498      1.09623143
H       5.46150433      1.24495988     -1.07275137
H       3.97459524     -0.22605605     -2.40543898
H       1.71442783     -0.78811891     -1.57352043
