9
N#CCCCl
N       2.57498487      0.66394696     -0.34772680
C       1.57098049      0.11667782     -0.15308552
C       0.29387983     -0.56053716      0.09062584
C      -0.85156948      0.43115376     -0.01826713
Cl     -2.40751076     -0.38231947      0.27627957
H       0.30636416     -1.01809131      1.08674201
H       0.16467453     -1.37094031     -0.63622474
H      -0.89708773      0.88278094     -1.01480232
H      -0.75471591      1.23732877      0.71645910
