43
CC1(C)O[C@@H]2CO[C@@]3(COS(N)(=O)=O)OC(C)(C)O[C@H]3[C@@H]2O1
C      -4.48862941     -0.66878773     -1.01671672
C      -3.36269779      0.23166152     -0.51361890
C      -3.67692879      1.69374767     -0.80029583
O      -3.21474545      0.03522346      0.90263198
C      -1.87320600     -0.43557379      1.09500443
C      -0.96918567      0.72505134      1.50709494
O       0.40746141      0.39204795      1.39930756
C       0.81884103      0.03505159      0.07578483
C       0.86884301      1.25592055     -0.86371112
O       1.55631016      2.36625935     -0.29052599
S       3.16503285      2.28746508     -0.11102393
N       3.61931217      3.89829754     -0.23717641
O       3.76288731      1.65351323     -1.26257111
O       3.49676110      1.93333712      1.24686380
O       2.12283380     -0.55111238      0.15725732
C       1.90597732     -1.93972830      0.42591931
C       2.24574361     -2.24910873      1.87843964
C       2.78101300     -2.75043839     -0.52299040
O       0.52797765     -2.26942083      0.18854077
C      -0.00117061     -1.11841985     -0.49349544
C      -1.49263903     -1.01429250     -0.24851497
O      -2.13051614     -0.11828106     -1.16826525
H      -5.44034564     -0.41692706     -0.53690487
H      -4.28427512     -1.71973791     -0.78492437
H      -4.60166582     -0.59242848     -2.10308885
H      -2.86575950      2.34346194     -0.45603465
H      -3.79222140      1.87104865     -1.87489252
H      -4.58757630      2.01299504     -0.28288145
H      -1.85541884     -1.20850684      1.87122394
H      -1.17814645      1.63963602      0.94389132
H      -1.17187705      0.98091104      2.55336760
H       1.33317960      0.99758868     -1.82239798
H      -0.14034822      1.61412093     -1.08431258
H       3.94717358      4.19989436      0.68030377
H       4.34061995      3.97088218     -0.95345169
H       1.59644253     -1.68895906      2.55936490
H       3.27812325     -1.96887214      2.11262304
H       2.10007382     -3.31124902      2.10177314
H       3.84191551     -2.51865737     -0.38127489
H       2.62516848     -3.82587306     -0.38791932
H       2.53679634     -2.51680495     -1.56574180
H       0.20588422     -1.25403027     -1.56293375
H      -1.95701846     -2.00090553     -0.37372752
