49
CC(C)=CC1C(C(=O)OCN2C(=O)C3=C(CCCC3)C2=O)C1(C)C
C      -6.80612183     -0.10010946      1.60848697
C      -5.31511278     -0.07962683      1.81111870
C      -4.84423572      0.81013442      2.92768948
C      -4.49488757     -0.82015863      1.04124187
C      -3.02994411     -0.90849895      1.12283019
C      -2.18467775      0.23234827      0.59437071
C      -1.00208540      0.69167026      1.35548600
O      -1.05391890      0.98118040      2.54145336
O       0.09869107      0.75526811      0.56902674
C       1.27287638      1.11832822      1.29004865
N       2.39578219      0.91060225      0.41868088
C       2.93332884      1.86075548     -0.38587302
O       2.62933817      3.03394350     -0.49752624
C       4.00435041      1.20499881     -1.13945247
C       4.03910445     -0.07872611     -0.77693233
C       4.98519515     -1.08865264     -1.30389929
C       6.12244283     -0.40977970     -2.08928257
C       5.62075993      0.74596733     -2.97062095
C       4.88084337      1.82555744     -2.16058737
C       3.00141850     -0.29002239      0.23394329
O       2.76997657     -1.35547215      0.77545641
C      -2.19669066     -1.10584152     -0.13380008
C      -2.83227715     -1.12131003     -1.50347623
C      -1.02128980     -2.05007535     -0.01691878
H      -7.30593094     -0.47986498      2.50535215
H      -7.10294549     -0.73402729      0.76688937
H      -7.17417164      0.91131812      1.40655426
H      -5.11848322      1.84884494      2.72325464
H      -5.31064917      0.50908125      3.87078454
H      -3.76344297      0.77550973      3.07505327
H      -4.95417920     -1.45394081      0.28336739
H      -2.68410196     -1.39929595      2.03036469
H      -2.72193235      1.05715115      0.13673866
H       1.21869833      2.17558753      1.57298211
H       1.39526998      0.48304743      2.17536078
H       5.41322019     -1.68275203     -0.48868450
H       4.44378981     -1.77689238     -1.96324229
H       6.86709690     -0.01914250     -1.38387857
H       6.63386138     -1.15533763     -2.70831512
H       4.94506430      0.34084100     -3.73595405
H       6.46356410      1.20226693     -3.50255280
H       4.29821402      2.45328897     -2.84316089
H       5.61002129      2.47327238     -1.66174823
H      -3.64258716     -0.39343233     -1.60034757
H      -3.24003262     -2.11321469     -1.72141514
H      -2.08544261     -0.88451894     -2.26835716
H      -0.57958951     -2.04874873      0.98456930
H      -1.34050871     -3.07422399     -0.23352507
H      -0.23766894     -1.77729789     -0.73155367
