9
CC(=O)OO
C      -1.28535107     -0.16721682      0.16609662
C       0.16679124      0.18891781      0.13924039
O       0.72410928      0.96455026      0.90554787
O       0.81926358     -0.51284445     -0.83820487
O       2.19661622      0.00613172     -0.92445443
H      -1.40562738     -1.20649607      0.48094463
H      -1.80359366      0.48199444      0.87751981
H      -1.72443997     -0.01161645     -0.82268887
H       2.31223176      0.25657954      0.01599884
