46
C#C[C@]1(O)CC[C@H]2[C@@H]3CCc4cc(O)ccc4[C@H]3CC[C@@]21C
C       4.08392056      2.43731261     -1.13334629
C       3.81685527      1.45508786     -0.49483896
C       3.50851906      0.24196191      0.29388164
O       4.40277128      0.19980886      1.39679339
C       3.68497070     -1.02492426     -0.58475453
C       2.27423846     -1.44594826     -1.04597702
C       1.35517277     -0.32830712     -0.55841070
C      -0.13611333     -0.62633329     -0.38463160
C      -0.78594162     -1.12880302     -1.67623146
C      -2.22668896     -1.54918732     -1.40234451
C      -3.00114436     -0.56890989     -0.55515479
C      -4.39464562     -0.73485791     -0.47279525
C      -5.16086512      0.12179057      0.30420324
O      -6.50774498     -0.08423817      0.34317865
C      -4.56442931      1.15457380      1.01049502
C      -3.17858836      1.32348275      0.94240192
C      -2.37062003      0.45779634      0.18191872
C      -0.86222505      0.67417890      0.07403405
C      -0.19300516      1.27391305      1.33881435
C       1.33308590      1.44270975      1.20238954
C       2.02279032      0.14201312      0.75346202
C       1.91208104     -0.88970469      1.91583303
H       4.31792085      3.31201386     -1.69549007
H       5.30015523      0.30409810      1.03733760
H       4.14853827     -1.84291959     -0.01988027
H       4.33126060     -0.84193579     -1.45171480
H       2.00306860     -2.41127304     -0.60390996
H       2.23259662     -1.55860673     -2.13433263
H       1.42678017      0.47841821     -1.30527679
H      -0.26785251     -1.40866869      0.37370477
H      -0.76542140     -0.33986605     -2.43920690
H      -0.24112599     -1.98511886     -2.08891201
H      -2.73727180     -1.69527989     -2.36196566
H      -2.22390699     -2.51494019     -0.88074771
H      -4.88630939     -1.53615139     -1.01918721
H      -6.90357240      0.58322344      0.92672648
H      -5.15232261      1.83916935      1.61311195
H      -2.74562206      2.15372501      1.49316230
H      -0.73954996      1.42234698     -0.72454147
H      -0.42923067      0.65787500      2.21443828
H      -0.60476434      2.26787275      1.54911623
H       1.50716656      2.24519651      0.47602502
H       1.75148732      1.79218758      2.15395738
H       2.40002771     -1.84088755      1.68140679
H       2.38694684     -0.49873318      2.82346463
H       0.87860788     -1.12516142      2.18160874
