16
CC(C)(C)N
C       1.46912819     -0.33788240      0.24006847
C       0.02205922     -0.00431304     -0.13791166
C      -0.19939506      1.51103039     -0.08463859
C      -0.94810762     -0.71245790      0.81509403
N      -0.22056637     -0.46411126     -1.50930321
H       1.65555488     -1.41755742      0.20070785
H       2.18187843      0.14804523     -0.43660855
H       1.69690214     -0.00032883      1.25765055
H       0.47575220      2.03862714     -0.76863293
H      -1.22682336      1.77644491     -0.36022512
H      -0.01730585      1.89920691      0.92405323
H      -0.78923670     -0.38739647      1.84965386
H      -0.81557421     -1.80031245      0.78622013
H      -1.99166038     -0.49707658      0.55734446
H      -0.10504979     -1.47572924     -1.56140424
H      -1.18755572     -0.27618898     -1.77206827
