24
COC(=O)c1ccccc1C(=O)OC
C      -1.97967562     -2.01693508      1.60840646
O      -1.17138858     -0.89296557      1.25932326
C      -1.52460562     -0.30595084      0.09036998
O      -2.46451975     -0.60860259     -0.62518555
C      -0.65564409      0.86248957     -0.15170519
C      -1.28696529      2.05878839     -0.52532075
C      -0.53718247      3.22237542     -0.70720549
C       0.84389370      3.19939479     -0.51758372
C       1.48120502      2.00809301     -0.16569471
C       0.73648625      0.83012733     -0.00114445
C       1.49078120     -0.40223433      0.30096404
O       2.41388047     -0.45140988      1.09627875
O       1.06186650     -1.40037069     -0.50870071
C       1.75757466     -2.63333410     -0.32353949
H      -1.91777216     -2.78935339      0.83528450
H      -1.59569545     -2.43270931      2.54399731
H      -3.01750675     -1.70727899      1.76587004
H      -2.36686753      2.08789267     -0.66203358
H      -1.03241067      4.14901041     -0.98945851
H       1.42678337      4.10819231     -0.65136160
H       2.56187914      1.99515224     -0.03264381
H       1.64178117     -2.98883472      0.70524197
H       1.31834782     -3.37448130     -0.99690435
H       2.81575468     -2.51705533     -0.57752760
