44
CNCCCC12CCC(c3ccccc31)c1ccccc12
C       5.29862669     -0.02704795      1.20544515
N       3.93746364      0.28660204      0.79145374
C       3.67444999     -0.20238399     -0.56206713
C       2.23508042      0.10844068     -0.98874757
C       1.19080310     -0.68585624     -0.18227536
C      -0.28896271     -0.29082481     -0.42492253
C      -0.61360901     -0.21470745     -1.96213827
C      -2.10824554      0.13567481     -2.21656339
C      -2.84184683      0.32467586     -0.87340381
C      -2.66053114     -0.98527445     -0.11547168
C      -3.70107230     -1.79632524      0.32461427
C      -3.39376983     -2.95791011      1.03137654
C      -2.06146388     -3.29540538      1.29929751
C      -1.01304581     -2.48082184      0.86036128
C      -1.30246846     -1.32486005      0.13983114
C      -2.07804450      1.40697747     -0.11801090
C      -2.63509407      2.60034149      0.32946018
C      -1.83916035      3.47993576      1.06153294
C      -0.50803775      3.15848012      1.35316521
C       0.05378054      1.95838971      0.90688027
C      -0.71796003      1.08253366      0.14874449
H       5.46543253      0.34577273      2.22076030
H       6.03695517      0.44354631      0.54808823
H       5.46866914     -1.10845297      1.21995856
H       3.80527550      1.29747504      0.81746316
H       4.36048610      0.27776240     -1.27030543
H       3.84136046     -1.28483465     -0.61643694
H       2.05756726      1.18667557     -0.91931159
H       2.14281777     -0.15442845     -2.04946511
H       1.40962378     -0.62370483      0.89112290
H       1.33195281     -1.74004988     -0.45740111
H      -0.00173764      0.55148154     -2.45452579
H      -0.38037397     -1.17017074     -2.45028329
H      -2.57547637     -0.66516176     -2.80372453
H      -2.17017816      1.04962404     -2.82095763
H      -3.89643684      0.58090853     -1.01443142
H      -4.73585731     -1.53110664      0.13198564
H      -4.19391465     -3.60227160      1.38668340
H      -1.83965431     -4.19876367      1.86252227
H       0.00718696     -2.76306578      1.09940482
H      -3.67414737      2.84166270      0.12839347
H      -2.25903985      4.41463972      1.42442371
H       0.09286436      3.84558470      1.94402239
H       1.07973246      1.72624361      1.17345191
