29
O=C(O)CCCCCCCC(=O)O
O       4.35051557      0.71960028     -0.27861650
C       3.37696421      1.34565105      0.10248954
O       3.42937531      2.06340712      1.24196201
C       2.04300038      1.47384733     -0.58262876
C       1.78420645      0.36180512     -1.59840598
C       1.64983910     -1.04590703     -1.00353316
C       0.56719992     -1.22401976      0.06532442
C      -0.83938017     -0.87675670     -0.42714028
C      -1.89223953     -1.18568866      0.64246398
C      -3.30939628     -0.87637234      0.17039176
C      -3.55290497      0.59968377      0.03364177
O      -3.61831974      1.22649084     -1.01019393
O      -3.69245641      1.21918684      1.22029245
H       4.34018484      1.91469365      1.57241993
H       1.25014719      1.49348839      0.17158213
H       2.03682975      2.44038368     -1.09926720
H       2.59891753      0.34532084     -2.33355851
H       0.87535012      0.60497706     -2.16126021
H       2.61094049     -1.35241556     -0.57390226
H       1.45092338     -1.74562537     -1.82527262
H       0.81058339     -0.62527680      0.95048123
H       0.58409774     -2.27178352      0.39125847
H      -1.06181487     -1.44817352     -1.33629935
H      -0.88782903      0.18540442     -0.68945512
H      -1.66584010     -0.61974942      1.55423597
H      -1.83684710     -2.24967011      0.90283023
H      -4.04372592     -1.27612773      0.87945220
H      -3.51637373     -1.35477000     -0.79358529
H      -3.84194751      2.15839615      0.98301098
