30
CC1(C)CC(O)CC(C)(C)N1[O]
C      -1.86756528     -0.52702198      1.14243934
C      -1.27756845     -0.25910833     -0.26589936
C      -2.37922727     -0.62537260     -1.30170668
C      -1.04287056      1.26383536     -0.42565104
C       0.19791780      1.74122790      0.31326379
O       0.38570896      3.14697303      0.09248353
C       1.41167954      0.99139819     -0.20616479
C       1.27106154     -0.54394477     -0.04297587
C       2.42400577     -1.16328342     -0.88400627
C       1.53782441     -0.91268700      1.43900689
N      -0.03036329     -0.98496253     -0.60707239
O      -0.20785852     -2.39731851     -0.40487155
H      -1.20814304     -0.20852256      1.95027513
H      -2.10434655     -1.58503027      1.29857963
H      -2.80709756      0.02414430      1.27455677
H      -3.26639291      0.00599986     -1.17038191
H      -2.70934682     -1.66589925     -1.20542223
H      -2.02466393     -0.47905603     -2.32924096
H      -0.94015629      1.52665194     -1.48883492
H      -1.91766730      1.83073417     -0.07941497
H       0.08974290      1.61021325      1.39386238
H      -0.46587627      3.56963765      0.28951762
H       1.55827606      1.25140440     -1.26490224
H       2.31377786      1.35931814      0.30107887
H       2.29098566     -0.95955769     -1.95345692
H       3.39331954     -0.74240710     -0.59036910
H       2.49390304     -2.24932167     -0.75529081
H       0.83681677     -0.44289744      2.12950177
H       1.50499859     -1.99414014      1.60986103
H       2.53912558     -0.58100691      1.74123526
