45
CC(C)(C)NC[C@H](O)COc1nsnc1N1CCOCC1
C       5.50217558     -0.28556018     -0.47023301
C       4.28895384      0.27256275     -1.23300860
C       4.39564095      1.80198516     -1.34240552
C       4.29444591     -0.31869272     -2.65570843
N       3.01613071     -0.15102106     -0.62388041
C       2.72163199      0.39361507      0.70870273
C       1.45334121     -0.25801647      1.29862112
O       1.70914066     -1.66475444      1.44877430
C       0.21362481     -0.00554810      0.42235108
O      -0.98512631     -0.16711952      1.20138607
C      -1.65975583     -1.31215509      0.93116612
N      -0.96172122     -2.44646484      1.02519353
S      -2.08356903     -3.64079595      0.71700368
N      -3.45504258     -2.72198266      0.52080031
C      -3.09616543     -1.43852313      0.67949620
N      -4.00972468     -0.40291092      0.58353669
C      -3.65384357      0.96182312      1.01612476
C      -4.70292923      1.98749440      0.55678501
O      -6.02503197      1.62431813      0.96973747
C      -6.37413699      0.35894079      0.39371997
C      -5.42484893     -0.74859098      0.86486645
H       5.60221324      0.15958596      0.52513727
H       6.43287107     -0.07655325     -1.01069399
H       5.43154362     -1.37260204     -0.34787949
H       3.51964782      2.22744220     -1.84560010
H       5.28005225      2.09221284     -1.92166360
H       4.48560375      2.27736976     -0.35965728
H       4.23672389     -1.41368521     -2.63666671
H       3.44672886      0.05025028     -3.24554353
H       5.21092981     -0.04819204     -3.19294465
H       3.00636792     -1.17298073     -0.53307407
H       2.57170669      1.47697610      0.65854605
H       3.55196515      0.18711462      1.39186749
H       1.28132756      0.13807395      2.30600171
H       0.83528635     -2.10247494      1.52235081
H       0.20640084      1.03894131      0.09046634
H       0.20643880     -0.63514306     -0.47749814
H      -3.57577403      0.98121109      2.10981379
H      -2.70321608      1.28275544      0.58230988
H      -4.47566588      2.96669903      0.99044874
H      -4.68757364      2.09894470     -0.53439555
H      -7.39832560      0.12530203      0.70140035
H      -6.36716268      0.44628185     -0.69954929
H      -5.53996340     -0.88942257      1.94713250
H      -5.72131619     -1.67671069      0.36266856
