34
COc1cc(-c2ccc(N)c(OC)c2)ccc1N
C      -3.90132371     -1.25126210     -1.78788766
O      -4.14212867     -0.31608616     -0.74450080
C      -3.04032755      0.16030049     -0.07248479
C      -1.74980648     -0.37366355     -0.16823465
C      -0.67949338      0.18213692      0.55561511
C       0.67612242     -0.37947989      0.44665138
C       0.92615763     -1.72113632      0.76951576
C       2.21304523     -2.25517369      0.66865791
C       3.28410067     -1.45240138      0.27255383
N       4.54786587     -2.03831952      0.05983358
C       3.04104371     -0.11831910     -0.10785050
O       4.14663605      0.58038575     -0.53445507
C       3.91150194      1.84798880     -1.13369695
C       1.75046649      0.41258632      0.00296079
C      -0.93346206      1.29305203      1.37303041
C      -2.22036354      1.82602647      1.47919319
C      -3.28768957      1.24185905      0.79504203
N      -4.55079507      1.86609453      0.81846502
H      -3.20234180     -0.85118601     -2.53007468
H      -3.54808114     -2.20545753     -1.38388442
H      -4.85301489     -1.43803203     -2.29472805
H      -1.54558032     -1.22283255     -0.81297858
H       0.11504602     -2.36446925      1.10471535
H       2.37251677     -3.30498068      0.89839722
H       4.77366877     -2.77294717      0.72035467
H       5.26702730     -1.31867742     -0.00164458
H       4.86628114      2.21585558     -1.52170884
H       3.21800051      1.76890762     -1.97766238
H       3.55429982      2.57048828     -0.39282658
H       1.54937570      1.44588964     -0.26225755
H      -0.12545557      1.75435566      1.93735448
H      -2.38275963      2.70413716      2.09794518
H      -5.26856831      1.22794512      0.47725489
H      -4.78196438      2.28641493      1.71112608
