18
Fc1cccc2ccccc12
F       1.37988420      2.61788156      0.42109878
C       1.28755749      1.30024324      0.17913680
C       2.46361744      0.58047141     -0.01414301
C       2.40025454     -0.78629051     -0.26672946
C       1.15930417     -1.42549445     -0.32449744
C      -0.03385302     -0.70653576     -0.13051905
C      -1.28757325     -1.33720195     -0.18605835
C      -2.46282080     -0.60880001      0.00879876
C      -2.40170047      0.75856233      0.26161090
C      -1.16444113      1.40082764      0.32014135
C       0.02856623      0.68223353      0.12623118
H       3.41891010      1.09315807      0.03419771
H       3.31348650     -1.35584280     -0.41880860
H       1.12833206     -2.49511643     -0.52309840
H      -1.35821367     -2.40486375     -0.38231631
H      -3.42608902     -1.11046251     -0.03707120
H      -3.31580075      1.32672189      0.41347130
H      -1.12942063      2.47050850      0.51855504
