52
O=C(O)COCCN1CCN([C@H](c2ccccc2)c2ccc(Cl)cc2)CC1
O       5.97024839      2.83635072      1.28462579
C       5.66266285      1.67139286      1.48083935
O       5.37120453      1.17548961      2.71062449
C       5.57752703      0.60251854      0.40040900
O       4.84893085     -0.52929663      0.90022117
C       3.45926120     -0.50424031      0.53604836
C       3.24346548     -1.09997542     -0.86879801
N       1.87366570     -1.12756755     -1.38927381
C       0.95441304     -1.96109302     -0.60207418
C      -0.46471957     -2.00067595     -1.21996378
N      -1.08869686     -0.67113442     -1.44613717
C      -1.47715501      0.00737957     -0.17418519
C      -2.41737966     -0.82827953      0.70613742
C      -3.54826298     -1.47316791      0.17565813
C      -4.39973873     -2.21372076      0.99715637
C      -4.13783008     -2.31635082      2.36136146
C      -3.02574680     -1.67813202      2.90625313
C      -2.17235512     -0.93686989      2.08639438
C      -2.09741936      1.39687065     -0.39310206
C      -1.70452095      2.47534101      0.41966868
C      -2.27062187      3.74128949      0.24720317
C      -3.23836051      3.94016284     -0.73471320
Cl     -3.93302594      5.50012305     -0.94613273
C      -3.64738460      2.88487395     -1.54530724
C      -3.08232149      1.61923490     -1.37283930
C      -0.11875664      0.12424998     -2.24326620
C       1.30955773      0.20399316     -1.64925668
H       5.16236172      0.21754965      2.61600961
H       6.59529942      0.27042222      0.17802847
H       5.11790030      1.02125839     -0.49974996
H       3.07058332      0.51639202      0.62200449
H       2.93984637     -1.11610593      1.28032175
H       3.87931839     -0.57138085     -1.58996104
H       3.64385590     -2.12282448     -0.87130339
H       1.33725329     -2.98811597     -0.56621912
H       0.88536067     -1.60610698      0.43234421
H      -0.40373826     -2.50778437     -2.19326852
H      -1.10398806     -2.65062250     -0.61365222
H      -0.55948455      0.16269537      0.40763429
H      -3.76348285     -1.40702890     -0.88862436
H      -5.26840568     -2.70853632      0.57076843
H      -4.80339993     -2.89046871      3.00048639
H      -2.82661012     -1.75296805      3.97218255
H      -1.31644740     -0.43879490      2.53543250
H      -0.95831779      2.33605785      1.19859316
H      -1.95678835      4.56436776      0.88374486
H      -4.40387028      3.03684947     -2.31016025
H      -3.40632599      0.80164170     -2.01395490
H      -0.05322940     -0.33540643     -3.23948861
H      -0.48671236      1.13797597     -2.43325063
H       1.94604474      0.73267830     -2.36920667
H       1.28633624      0.80935466     -0.73626241
