18
COC(C)(C)C
C       2.04018024     -0.59046686     -0.25104080
O       1.15996860      0.52286313     -0.24717006
C      -0.22765866      0.25474207      0.00504084
C      -0.91690564      1.62563127     -0.05264684
C      -0.83285168     -0.64790580     -1.07669728
C      -0.44102035     -0.34671241      1.39928548
H       1.78108989     -1.30103643     -1.03958130
H       3.04848002     -0.21882592     -0.45581287
H       2.05989257     -1.08673759      0.72218062
H      -0.49007209      2.30773967      0.69196555
H      -0.76252865      2.09830591     -1.02970995
H      -1.99435668      1.54835070      0.12726175
H      -1.92184315     -0.71448224     -0.97895941
H      -0.59468344     -0.27068044     -2.07749712
H      -0.43598402     -1.66694409     -1.01868037
H      -1.50484107     -0.39394081      1.65607915
H      -0.04319625     -1.36501572      1.46334152
H       0.07633035      0.24511556      2.16264107
