21
CC1CNCC(C)O1
C      -2.30353007     -1.26264136     -0.19067329
C      -1.12279974     -0.49692621      0.38997488
C      -1.28296581      1.02082426      0.16275322
N      -0.11501694      1.77450215      0.65207637
C       1.10252185      1.22395611      0.03072776
C       1.22636298     -0.29688401      0.25996931
C       2.44845421     -0.85799426     -0.45364251
O       0.06947319     -0.98057049     -0.25344555
H      -2.17555197     -2.33870430     -0.03079625
H      -2.37456697     -1.11252509     -1.27361642
H      -3.24556851     -0.95085179      0.27029248
H      -1.05471778     -0.71548448      1.46359056
H      -2.17835270      1.38260983      0.67970909
H      -1.41204000      1.22853139     -0.90712729
H      -0.21313591      2.75360463      0.38565609
H       1.97527895      1.73630580      0.44982348
H       1.07672970      1.44045063     -1.04486991
H       1.31412527     -0.51375855      1.33249618
H       2.52198817     -1.93869483     -0.29074862
H       2.37411035     -0.70816080     -1.53640100
H       3.36920175     -0.38758863     -0.09574859
