29
CNc1nc(NC(C)C)nc(SC)n1
C       2.16473103      3.70583868     -0.75531878
N       2.15253361      2.58252051     -1.66598732
C       1.61668996      1.41416756     -1.13559471
N       0.59859669      1.46916317     -0.28640586
C       0.14071157      0.30724551      0.15420181
N      -0.92156983      0.38447084      1.04124882
C      -1.89719005     -0.69771051      1.02211435
C      -2.78490144     -0.60980682     -0.21933791
C      -2.75111390     -0.58746982      2.28590870
N       0.63667849     -0.86810710     -0.19490423
C       1.65748952     -0.81734741     -1.04097005
S       2.40185320     -2.34309638     -1.57900180
C       1.58651444     -3.51315851     -0.46559518
N       2.18507571      0.29310139     -1.54247830
H       1.15028225      4.03720950     -0.50824883
H       2.67439313      4.54880210     -1.23286951
H       2.70532813      3.47020073      0.16815301
H       3.05692223      2.32998588     -2.05161951
H      -1.30190361      1.32254685      0.96899456
H      -1.40027854     -1.67555496      1.04845724
H      -3.54848813     -1.39472316     -0.20705284
H      -2.19940630     -0.73068984     -1.13687628
H      -3.29376824      0.35895227     -0.27786141
H      -3.28408476      0.36926904      2.32693256
H      -3.49203307     -1.39266589      2.32818611
H      -2.12601952     -0.65577480      3.18319866
H       0.50689628     -3.52956586     -0.63957915
H       1.78848497     -3.26159473      0.57940633
H       1.97757620     -4.51620825     -0.65736482
