15
COP(N)(=O)SC
C       1.46530320      0.90150944     -1.58208017
O       0.20378229      0.55712828     -1.04392413
P       0.17336792     -0.64039348      0.03586714
N       0.25782384     -2.01266037     -0.85387610
O       1.24911625     -0.50609656      1.06917687
S      -1.69554371     -0.66510028      0.94240693
C      -1.69084685      0.84798258      1.91977126
H       1.31840319      1.64633742     -2.36827379
H       1.95161548      0.02326929     -2.01504264
H       2.09929638      1.33260747     -0.80277067
H       0.31854663     -2.82676626     -0.25283946
H      -0.57462447     -2.14118520     -1.41692397
H      -0.89267431      0.81146534      2.66532727
H      -2.64931744      0.95899220      2.43287065
H      -1.53424842      1.71291012      1.27031081
