20
CCOC(=O)C(=O)OCC
C       4.15392730     -0.13352219     -0.03012397
C       2.88720990      0.39163505     -0.67719598
O       1.76758583     -0.10193760      0.06514691
C       0.56561733      0.29601352     -0.41109370
O       0.37040112      1.01005646     -1.37958317
C      -0.56561761     -0.29601493      0.46704032
O      -0.37040296     -1.01006103      1.43552793
O      -1.76758557      0.10194042     -0.00919772
C      -2.88721145     -0.39163000      0.73314353
C      -4.15392546      0.13351801      0.08605959
H       5.04030125      0.21874506     -0.56503323
H       4.15737204     -1.22852745     -0.02226575
H       4.21753582      0.19256864      1.01329806
H       2.82826899      0.04023829     -1.71348173
H       2.88952285      1.48731041     -0.65896434
H      -2.88952268     -1.48730510      0.71492057
H      -2.82827616     -0.04022467      1.76942660
H      -5.04030263     -0.21874957      0.62096390
H      -4.15737328      1.22852310      0.07819644
H      -4.21752462     -0.19257645     -0.95736095
