123
CCC1(O)CC2CN(CCc3c([nH]c4ccccc34)C(C(=O)OC)(c3cc4c(cc3OC)N(C=O)C3C(O)(C(=O)OC)C(OC(C)=O)C5(CC)C=CCN6CCC43C65)C2)C1.O=S(=O)(O)O
C       4.27955108     -3.21728370     -3.43225975
C       4.46501699     -4.08983908     -2.19811560
C       4.41514438     -3.35395752     -0.84353819
O       4.76278746     -4.35302805      0.14220056
C       2.99197002     -2.85447283     -0.50587305
C       2.95045302     -1.53301725      0.31083035
C       4.16587590     -1.46817457      1.24348949
N       5.47205455     -1.61241458      0.59632527
C       6.32210376     -0.41734481      0.68754691
C       5.83975593      0.87056308     -0.00796177
C       4.90210651      1.70935728      0.81371435
C       3.50642895      1.77632784      0.78757438
N       3.15636349      2.80696524      1.64552939
C       4.24359673      3.30987083      2.30761650
C       4.32075556      4.30520849      3.28925740
C       5.58755109      4.63462467      3.77859750
C       6.72689015      3.99618196      3.29840601
C       6.62613637      3.00607153      2.31389036
C       5.35704441      2.64854720      1.80786598
C       2.39564240      1.08639149     -0.03460097
C       2.21364829      2.13787056     -1.20816819
O       1.62481101      3.21167760     -1.09007087
O       2.82438934      1.74143626     -2.36422683
C       2.72615320      2.68517307     -3.43069750
C       1.01279280      0.91414546      0.70500830
C      -0.17379337      0.98999841     -0.06836393
C      -1.41907029      0.84006927      0.52777132
C      -1.51398362      0.58879583      1.88995477
C      -0.38625390      0.47311568      2.68182640
C       0.88062004      0.61585480      2.09170649
O       2.04039991      0.43232939      2.79352717
C       1.97744350      0.30796457      4.20771748
N      -2.85836474      0.47637486      2.25886739
C      -3.36353986      0.38311401      3.52703121
O      -4.55740635      0.32797702      3.80012570
C      -3.69669763      0.40452493      1.03111547
C      -4.22090380     -1.06058509      0.75565651
O      -3.21715534     -2.00326226      1.22689257
C      -5.51206951     -1.31220097      1.56430542
O      -5.70898062     -2.32017704      2.23712704
O      -6.43769694     -0.33478519      1.35847590
C      -7.63772604     -0.50820400      2.11276874
C      -4.45438837     -1.43515529     -0.75404946
O      -5.65081359     -2.22595134     -0.96370757
C      -5.56739810     -3.54513935     -0.63066122
C      -6.87952743     -4.23139644     -0.85218992
O      -4.57235230     -4.08149220     -0.16273652
C      -4.40381745     -0.22766315     -1.73332654
C      -5.59808990      0.76847267     -1.59591016
C      -6.99550400      0.23166649     -1.90746974
C      -4.39241666     -0.67870683     -3.19258290
C      -3.68527035     -0.00146752     -4.11324457
C      -2.82684482      1.19986847     -3.80773507
N      -2.55275775      1.42883756     -2.39695623
C      -2.88718885      2.73160340     -1.85148807
C      -3.04981398      2.51525186     -0.34230645
C      -2.80131406      1.00834394     -0.09178562
C      -2.98125273      0.38139609     -1.47133446
C       2.76151006     -0.31260365     -0.63252230
C       5.46169821     -2.22175098     -0.74235680
O       0.51351479      0.84995227      1.38592327
S      -0.04161243      0.44251205      0.12066707
O      -0.69318429      1.34122967     -0.79744093
O      -1.06712963     -0.76290955      0.38254961
O       1.13266784     -0.31649073     -0.66534999
H       5.10718251     -2.51158844     -3.55000758
H       3.34563590     -2.65070148     -3.39934453
H       4.25676817     -3.84480784     -4.32969469
H       3.70344407     -4.88139845     -2.20255535
H       5.42361270     -4.61836250     -2.28646890
H       5.18779341     -3.86540575      0.87566505
H       2.38257765     -2.74022944     -1.40787069
H       2.48459592     -3.62727844      0.08857302
H       2.05214362     -1.60729038      0.93475272
H       4.07494553     -2.30834448      1.94610413
H       4.13068289     -0.59854832      1.90156863
H       6.52525460     -0.21553948      1.74737106
H       7.30178397     -0.67800318      0.26359587
H       5.43168276      0.67814770     -1.00191590
H       6.73082491      1.48104362     -0.21055588
H       2.20771027      3.12340127      1.79488364
H       3.43314645      4.80894028      3.65660262
H       5.68257720      5.40505529      4.54074031
H       7.70432195      4.26915020      3.68786651
H       7.52417891      2.51780345      1.94753354
H       3.24882520      2.27237714     -4.29750896
H       3.20813538      3.62852859     -3.15415782
H       1.67889851      2.84868819     -3.70372136
H      -0.13635392      1.18567278     -1.13763387
H      -0.49199498      0.23336042      3.73096379
H       3.00423931      0.27969218      4.58543223
H       1.49031536     -0.62879495      4.49670358
H       1.48052099      1.17163923      4.66085940
H      -2.60028816      0.40128956      4.31844117
H      -4.54561273      1.07084781      1.21675822
H      -3.62381909     -2.89780033      1.18392782
H      -8.15261189     -1.42362650      1.80505367
H      -7.42069196     -0.52542814      3.18596595
H      -8.29314117      0.34211771      1.90597846
H      -3.61821388     -2.08319976     -1.06263238
H      -6.69892239     -5.24132597     -1.23172968
H      -7.47314603     -3.69406209     -1.59864444
H      -7.43040751     -4.27375123      0.09106341
H      -5.63885406      1.20513050     -0.59867111
H      -5.44376285      1.61437737     -2.27546050
H      -7.71563500      1.05848107     -1.88410733
H      -7.05382877     -0.22043570     -2.90127015
H      -7.33212361     -0.49836849     -1.16906147
H      -5.00841798     -1.52246101     -3.49274794
H      -3.72792966     -0.31365284     -5.15385518
H      -1.86312386      1.05236596     -4.30898180
H      -3.28535256      2.07796490     -4.27795071
H      -2.08502149      3.44818936     -2.05632543
H      -3.81391115      3.14297024     -2.26618404
H      -4.06618639      2.80839052     -0.05480138
H      -2.36396353      3.16260924      0.21732833
H      -2.24858830     -0.43382615     -1.58264024
H       1.94481981     -0.57699481     -1.32308146
H       3.62691172     -0.22959068     -1.28783930
H       6.45873112     -2.64580600     -0.91937893
H       5.29133938     -1.47750985     -1.52368787
H      -1.59089783     -0.88083025     -0.43610644
H       1.74664154     -0.67346346      0.00975740
