28
CCCC[Sn](=O)CCCC
C      -5.02063019      0.63163444     -0.55040673
C      -3.94936359      0.08107432      0.36244878
C      -2.69284875     -0.22744266     -0.44616233
C      -1.61795798     -0.78028804      0.47213264
Sn      0.12576471     -1.19803544     -0.70685896
O      -0.12854893     -2.06998672     -2.23436131
C       1.84531532      0.06440784     -0.53870541
C       2.78834348     -0.42062021      0.54084844
C       3.98660033      0.49994387      0.62377892
C       4.74933498      0.54941209     -0.67849426
H      -4.72854098      0.50831052     -1.62707471
H      -5.19270042      1.71447951     -0.33076184
H      -5.95175353      0.05690697     -0.41484341
H      -4.31996709     -0.84342081      0.86151279
H      -3.70769206      0.83856461      1.12277860
H      -2.92874975     -0.90595962     -1.26854591
H      -2.31793848      0.72750581     -0.86689049
H      -1.41600387     -0.12602510      1.32127198
H      -2.01453010     -1.75851890      0.85889211
H       2.40518991      0.12744411     -1.49181224
H       1.55010130      1.11101286     -0.28962994
H       2.29254323     -0.42039190      1.51879664
H       3.15440092     -1.44272199      0.30674790
H       3.63595591      1.54879298      0.82955372
H       4.65934828      0.16479341      1.42476995
H       4.56973526      1.49620082     -1.23260174
H       5.83259070      0.37331470     -0.49459760
H       4.39200141     -0.30038748     -1.29516914
