27
CNC(=O)O/N=C(\SC)C(=O)N(C)C
C       4.90835074      0.09962879     -1.04532387
N       3.71178973      0.26374563     -0.26632813
C       2.46696546      0.08024295     -0.80963623
O       2.26551843     -0.33713269     -1.94296175
O       1.51001817      0.43575576      0.10766077
N       0.22148453      0.30937345     -0.44863624
C      -0.69210572      0.39546873      0.46005820
S      -0.56591524      0.61812976      2.17459648
C      -0.47780238      2.42223864      2.19389156
C      -2.16902328      0.26715654      0.16206763
O      -2.84365603      1.29327604      0.13953144
N      -2.66546700     -1.01528181     -0.09954225
C      -1.79703856     -2.16381427     -0.30835390
C      -4.02534003     -1.12904992     -0.59108718
H       5.74936719     -0.04919371     -0.36430093
H       5.06735833      1.00566031     -1.63594278
H       4.81407392     -0.75897017     -1.71553888
H       3.74758220      0.73464182      0.62634604
H      -1.39793299      2.86211993      1.80129861
H       0.37072282      2.77170662      1.59934854
H      -0.34365744      2.76452279      3.22348646
H      -0.90923241     -2.11500950      0.32560086
H      -2.34261754     -3.08014243     -0.06485449
H      -1.49067240     -2.18448851     -1.35824096
H      -4.00130769     -1.16645145     -1.68426054
H      -4.47490871     -2.04629237     -0.20009940
H      -4.63655407     -0.27784091     -0.27877906
