18
O=P([O-])([O-])OP(=O)([O-])OP(=O)([O-])[O-].[Na+].[Na+].[Na+].[Na+].[Na+]
O      -3.13641826     -1.83102891      0.02285830
P      -2.80240859     -0.45598556     -0.57278522
O      -3.59726119      0.67670300      0.08571384
O      -3.07120175     -0.47585670     -2.09358151
O      -1.20289495     -0.18706907     -0.42851368
P      -0.08763293      0.24322553      0.68321995
O      -0.22601048      1.73763656      0.98611174
O      -0.14059105     -0.72018268      1.87200408
O       1.27937521     -0.02517258     -0.16775954
P       2.88670866      0.22201917     -0.08443062
O       3.49062667     -0.68825165     -1.17629266
O       3.18728984      1.68983651     -0.41949124
O       3.42041884     -0.18587363      1.29294657
Na      0.00000000      0.00000000      0.00000000
Na      0.00000000      0.00000000      0.00000000
Na      0.00000000      0.00000000      0.00000000
Na      0.00000000      0.00000000      0.00000000
Na      0.00000000      0.00000000      0.00000000
