18
Nc1ccccc1S(=O)(=O)O
N       1.35046093      1.50674582      0.33870857
C       0.15086155      0.77943480      0.16770299
C      -1.05758924      1.47495759      0.04488919
C      -2.25630141      0.79538636     -0.19636144
C      -2.25981872     -0.58837987     -0.36082459
C      -1.06026544     -1.29379915     -0.31089765
C       0.13466322     -0.60441201     -0.07095794
S       1.67210756     -1.48269628     -0.14805675
O       2.37655574     -1.19593014      1.08571975
O       1.41696612     -2.83687692     -0.58789722
O       2.46368204     -0.71348373     -1.33217393
H       1.18028542      2.44969798      0.69080348
H       1.98580494      1.02835009      0.99142591
H      -1.08543462      2.55711532      0.15022597
H      -3.18902448      1.35100730     -0.26430922
H      -3.19313801     -1.11270411     -0.55311497
H      -1.06109982     -2.36835690     -0.48273456
H       2.43128424      0.25394383     -1.14860797
