39
CN(C)CCc1c[nH]c2ccc(Cn3cncn3)cc12
C      -3.41443024      2.60715081      1.08065036
N      -3.26796332      1.20747610      1.49195999
C      -4.58732821      0.63970982      1.77833597
C      -2.55809321      0.44915697      0.44096644
C      -2.14920717     -0.97085234      0.87234309
C      -1.28138359     -1.64155453     -0.15018365
C      -1.69713622     -2.52230942     -1.12977315
N      -0.60270269     -2.90390754     -1.85801782
C       0.52825570     -2.28782027     -1.37591103
C       1.85554616     -2.37626715     -1.80750811
C       2.81277581     -1.62391976     -1.11949339
C       2.46258027     -0.80843046     -0.03495082
C       3.51612181     -0.00106429      0.68208060
N       4.02020037      1.07979844     -0.14473627
C       3.35712860      2.19809408     -0.54839900
N       4.16932644      2.96569702     -1.23833664
C       5.33868249      2.25985965     -1.22872546
N       5.30241858      1.10155435     -0.56432352
C       1.11887898     -0.74301684      0.37784765
C       0.13488012     -1.49153961     -0.30205189
H      -3.90214186      3.19154648      1.86899319
H      -2.43287005      3.06586183      0.91674013
H      -4.00203646      2.70871045      0.16093107
H      -5.10826274      1.24023188      2.53310090
H      -5.21959959      0.59065179      0.88448162
H      -4.50261928     -0.36590243      2.20153046
H      -3.15986115      0.40136862     -0.47704467
H      -1.64124975      0.99526125      0.18037244
H      -1.61196742     -0.92982532      1.82829397
H      -3.03818098     -1.59082498      1.03831648
H      -2.67872783     -2.90959240     -1.36906984
H      -0.61645823     -3.54468701     -2.63930447
H       2.14029008     -3.00129583     -2.64786312
H       3.85126491     -1.67645753     -1.44761385
H       4.35633985     -0.64427572      0.96842545
H       3.12301443      0.45431288      1.59834214
H       2.31859455      2.39429962     -0.32143312
H       6.24218928      2.60220475     -1.71675779
H       0.82373157     -0.11940336      1.21778565
