15
O=C([O-])c1ccccc1.[K+]
O       3.01952927      1.00284437     -0.19615989
C       2.39549508     -0.05791773      0.12580901
O       2.93054203     -1.14670390      0.50865144
C       0.88073953     -0.02129425      0.04625581
C       0.11243718     -1.14795419      0.38352687
C      -1.28250401     -1.11547834      0.31067748
C      -1.93212777      0.04671462     -0.10147322
C      -1.18767417      1.17520180     -0.44040868
C       0.20716366      1.14022702     -0.36674148
K       0.00000000      0.00000000      0.00000000
H       0.62055818     -2.05572725      0.70548442
H      -1.85355609     -1.99928074      0.57665587
H      -3.01547470      0.07290738     -0.15836939
H      -1.68448174      2.08482255     -0.76247077
H       0.78935355      2.02163866     -0.63143745
