19
COC(=O)c1ccccc1O
C       3.40734988     -0.06848015     -0.50968667
O       2.05291102      0.37664392     -0.41991647
C       1.18143453     -0.58271201     -0.02579554
O       1.46164636     -1.74319943      0.24410998
C      -0.20836852     -0.06523498      0.04991476
C      -0.51412532      1.26866947     -0.26286928
C      -1.83175525      1.72831804     -0.18273438
C      -2.85170661      0.86250714      0.20915610
C      -2.55841811     -0.46427599      0.52195098
C      -1.24503427     -0.92570887      0.44295557
O      -1.05385342     -2.24313663      0.76905236
H       3.76619134     -0.40333561      0.46861152
H       4.02093938      0.77687309     -0.83306623
H       3.49952355     -0.86783601     -1.25164486
H       0.26291087      1.96402034     -0.57107796
H      -2.06219191      2.76292773     -0.42637966
H      -3.87680274      1.21960031      0.27163641
H      -3.35200486     -1.14132458      0.82778292
H      -0.09864590     -2.45431577      0.67800046
