16
S=c1[nH]c2ccccc2[nH]1
S       4.02539196     -0.49812473      0.08002312
C       2.39012557     -0.29576761      0.04751457
N       1.43011584     -1.31342250     -0.00127789
C       0.16789743     -0.72341287     -0.01502965
C      -1.07491495     -1.30813889     -0.05904220
C      -2.17501896     -0.44288247     -0.06185124
C      -2.00225128      0.95980139     -0.02118984
C      -0.72523244      1.53089926      0.02325688
C       0.33838544      0.66076257      0.02509505
N       1.70586512      0.92535857      0.06361938
H       1.63213342     -2.30102241     -0.02242699
H      -1.20356489     -2.38274210     -0.09010766
H      -3.18197511     -0.85437343     -0.09588351
H      -2.87912849      1.60440853     -0.02460790
H      -0.58927737      2.60459851      0.05446700
H       2.14144872      1.83405819      0.09744089
