21
CC(C)SC(C)C
C      -1.79521760     -0.65626535     -1.18121089
C      -1.37149660     -0.25900276      0.22946780
C      -2.57452106      0.22414765      1.03580171
S      -0.13330803      1.09143308      0.16915979
C       1.38637730      0.13717380     -0.20549922
C       1.93723906     -0.50651144      1.06319808
C       2.41448066      1.08615476     -0.81649459
H      -2.54819933     -1.45145320     -1.14146124
H      -0.95396086     -1.03940329     -1.76714122
H      -2.23648976      0.18617485     -1.72591416
H      -0.94014915     -1.12441094      0.74157122
H      -3.32722677     -0.56894047      1.10852207
H      -2.28704544      0.49336512      2.05839323
H      -3.05634483      1.09288358      0.57269230
H       1.15551969     -0.63888026     -0.94149248
H       2.18421150      0.24180546      1.82487756
H       1.22971766     -1.21829096      1.49978075
H       2.85515361     -1.06164537      0.83926971
H       3.33056185      0.54161490     -1.07166915
H       2.03870272      1.53987056     -1.74047846
H       2.69199537      1.89018027     -0.12522409
