43
CN1[C@H]2CC(OC(=O)[C@H](CO)c3ccccc3)C[C@@H]1C1OC12
C      -4.68249266      1.53270919     -0.95364734
N      -3.47690780      0.82204763     -0.54236951
C      -3.73420535     -0.55432655     -0.05708490
C      -2.38825349     -1.27079472     -0.28483603
C      -1.23035961     -0.58049381      0.47693052
O       0.01561420     -1.01233057     -0.10442381
C       1.09483050     -1.04222004      0.72733437
O       1.06864686     -0.76271700      1.91983302
C       2.33646602     -1.46256843     -0.03656187
C       3.21141170     -2.33909029      0.87101063
O       4.18131898     -3.06281823      0.10883279
C       3.09922402     -0.26830209     -0.59149796
C       3.36868287     -0.19023860     -1.96728763
C       4.08758781      0.88973271     -2.49032817
C       4.54564602      1.90199891     -1.64711448
C       4.28333623      1.83803565     -0.28114090
C       3.56348197      0.76090660      0.24512292
C      -1.31909977      0.96466634      0.44824267
C      -2.77207212      1.45962251      0.59569604
C      -3.39588105      0.86885711      1.83983751
O      -4.81739966      0.67667680      1.87005656
C      -4.00704839     -0.41801612      1.42384136
H      -5.42265298      1.68209731     -0.16387831
H      -5.17150334      0.99259330     -1.77135545
H      -4.41663883      2.51741335     -1.34901201
H      -4.54194627     -1.06225809     -0.59406679
H      -2.45262622     -2.31757891      0.04034232
H      -2.15730512     -1.30304664     -1.35985558
H      -1.28150615     -0.92465087      1.51913216
H       2.00811350     -2.09575986     -0.87258790
H       2.59842571     -3.08591365      1.38645603
H       3.73702593     -1.76053804      1.63828580
H       4.81103156     -2.40352823     -0.24238568
H       3.02250689     -0.96975332     -2.64515645
H       4.29072948      0.94151330     -3.55639732
H       5.10807298      2.73771537     -2.05332923
H       4.64159185      2.62479683      0.37808985
H       3.37192378      0.73793885      1.31800872
H      -0.69246923      1.38020046      1.24820690
H      -0.88957076      1.34007902     -0.49189622
H      -2.81457881      2.55504774      0.57519725
H      -2.85006049      0.97055080      2.76276615
H      -3.93109075     -1.30825574      2.02725423
