29
c1ccc2c(c1)Cc1c-2ccc2ccccc12
C      -4.38920576     -0.70183039     -0.41936199
C      -4.30471065      0.60504237      0.09018728
C      -3.06352208      1.19137224      0.35917585
C      -1.91822032      0.45320995      0.11140004
C      -2.01083513     -0.85764117     -0.39996618
C      -3.23514247     -1.44661707     -0.66941106
C      -0.62828309     -1.44675536     -0.58199769
C       0.27104242     -0.31553903     -0.11323022
C      -0.52002516      0.78611484      0.28738314
C       0.07208879      1.94401859      0.75619377
C       1.46827192      1.99802439      0.82395419
C       2.27311884      0.90559950      0.42737379
C       3.67341103      0.97521371      0.50131775
C       4.46768577     -0.10412509      0.10944929
C       3.87406016     -1.27051234     -0.36269208
C       2.48411216     -1.36135954     -0.44451679
C       1.66869142     -0.28205798     -0.05338378
H      -5.36567736     -1.13634462     -0.62061172
H      -5.21669701      1.16709883      0.27751134
H      -3.00965191      2.20066782      0.75231584
H      -3.30030469     -2.45546962     -1.06276276
H      -0.50182460     -2.32985176      0.05131527
H      -0.44521135     -1.67562177     -1.63605693
H      -0.52280353      2.79611275      1.06662688
H       1.93504698      2.90938746      1.19297396
H       4.15931818      1.87705695      0.86729077
H       5.55027873     -0.03203178      0.17369607
H       4.49220543     -2.11076068     -0.66775371
H       2.04278327     -2.28240120     -0.81642034
