29
CC(C)Nc1nc(Cl)nc(NC2CC2)n1
C      -3.69863539     -0.63731149      0.64528676
C      -3.23812981      0.72311011      0.12215134
C      -4.11417688      1.83304394      0.70438096
N      -1.85831507      0.98609170      0.51025802
C      -0.85255166      0.30666500     -0.15474375
N      -1.01650180     -0.07450463     -1.40716448
C       0.03507480     -0.69893463     -1.91146752
Cl     -0.11363126     -1.22298375     -3.53199434
N       1.18244545     -0.97546699     -1.31672995
C       1.24070598     -0.55158990     -0.06592289
N       2.39258873     -0.77121481      0.69875590
C       3.67541904     -0.97130464      0.03556324
C       4.96125001     -0.78107214      0.79037194
C       4.57363086      0.18831545     -0.28866318
N       0.25083083      0.08855053      0.55156536
H      -4.74951862     -0.81482554      0.39345189
H      -3.11021615     -1.45136283      0.20897614
H      -3.59418880     -0.70188672      1.73423735
H      -3.35315185      0.75459551     -0.96842199
H      -3.79644260      2.81321049      0.33176228
H      -5.16331419      1.68934652      0.42554650
H      -4.05239742      1.85988638      1.79825175
H      -1.66028010      0.94985961      1.50404122
H       2.33906033     -0.16263226      1.50816721
H       3.65762482     -1.79815115     -0.67255021
H       5.77104682     -1.47213302      0.58657208
H       4.91446067     -0.44408460      1.81862747
H       5.11684673      0.15427642     -1.22598583
H       4.26046652      1.18250742      0.00622833
