26
CCCCC(CC)C(=O)O
C      -3.53970545     -0.66444200      0.81641230
C      -2.14908547     -0.04778231      0.80859770
C      -1.63743419      0.15384409     -0.61804817
C      -0.29411488      0.89245187     -0.68937411
C       0.88537730      0.17302007     -0.01030058
C       2.16246286      1.02689949     -0.09962724
C       3.31553823      0.45005674      0.71200389
C       1.10614348     -1.19488312     -0.61854717
O       1.00994103     -2.25989139     -0.03049987
O       1.42904192     -1.16489769     -1.92455416
H      -3.88616201     -0.80464353      1.84513318
H      -4.25847084     -0.01915725      0.30133588
H      -3.53807921     -1.64118381      0.32209477
H      -2.17935082      0.91371080      1.33380681
H      -1.47398994     -0.70490115      1.36675702
H      -2.37425851      0.74021247     -1.18166311
H      -1.56220719     -0.81511388     -1.12540445
H      -0.05926630      1.06563509     -1.74766664
H      -0.41811139      1.88450081     -0.23634811
H       0.65207071      0.02522445      1.05092796
H       1.95108031      2.03568723      0.27578829
H       2.48202095      1.13756085     -1.14286741
H       4.18104824      1.11851058      0.66246922
H       3.62587362     -0.52693882      0.32922690
H       3.03605828      0.33614002      1.76420251
H       1.53357928     -2.10961958     -2.16385542
