19
CCCCCN
C       2.98707648     -0.07494068      0.09555451
C       1.67185969      0.17731626     -0.62423636
C       0.47396712     -0.15567611      0.26488728
C      -0.84771651      0.09934596     -0.46283685
C      -2.04242520     -0.23471599      0.42882047
N      -3.29049398      0.00678795     -0.28538353
H       3.82999494      0.16967422     -0.55833027
H       3.06583794      0.54186950      0.99648679
H       3.07848672     -1.12559411      0.38899808
H       1.63899307     -0.42987649     -1.53634106
H       1.62643580      1.22840133     -0.93222161
H       0.51388219      0.45140580      1.17756156
H       0.52657703     -1.20691099      0.57351441
H      -0.88499967     -0.50780912     -1.37622006
H      -0.89657722      1.15108499     -0.77228036
H      -2.02008392      0.37687169      1.33749445
H      -2.00329904     -1.28612975      0.73305168
H      -4.07657075     -0.17067576      0.33849868
H      -3.35094468      0.98957130     -0.54863983
