19
Cc1ccc(O)c(C)c1
C       2.79201576     -0.53088558      0.03718290
C       1.37769937     -0.03287010     -0.01177072
C       1.10928140      1.34052290     -0.01857772
C      -0.20738266      1.80323322     -0.03197787
C      -1.26010670      0.89020852     -0.02805526
O      -2.55388244      1.33083852     -0.03994440
C      -1.02067816     -0.48640779     -0.00748406
C      -2.15765927     -1.46605652      0.00624419
C       0.30711089     -0.93831480      0.00670634
H       3.47035976      0.16825139     -0.46309347
H       2.88437205     -1.49452073     -0.47475357
H       3.11080117     -0.64991989      1.07723440
H       1.92602007      2.05869765     -0.01406173
H      -0.39052624      2.87286405     -0.04201062
H      -2.54965646      2.30132335     -0.05581606
H      -2.76605405     -1.32775822      0.90582878
H      -2.78522015     -1.33190762     -0.88076994
H      -1.79706268     -2.50007301      0.00361062
H       0.51056833     -2.00722535      0.03150820
