18
CCCCCS
C      -2.62017477      0.16276467     -0.95483260
C      -1.27831201     -0.50117718     -0.69009960
C      -0.33503321      0.42756888      0.07417784
C       1.01501363     -0.24420557      0.33897186
C       1.94906156      0.69091958      1.10205072
S       3.54566719     -0.11427435      1.41758165
H      -3.11552670      0.43392346     -0.01705111
H      -2.49725525      1.07070259     -1.55389391
H      -3.27883885     -0.51875381     -1.50219424
H      -0.82467411     -0.78862763     -1.64575360
H      -1.43952288     -1.42187423     -0.11737241
H      -0.79541957      0.71531566      1.02728269
H      -0.18046797      1.34857001     -0.50117506
H       0.85241152     -1.16505498      0.91325544
H       1.46800144     -0.53079552     -0.61854529
H       2.13000473      1.60690769      0.53060776
H       1.50952146      0.97261454      2.06418941
H       3.89554378     -0.27453585      0.13280045
