23
c1ccc(Oc2ccccc2)cc1
C       3.66323261     -0.37161996     -0.03214772
C       2.76601787      0.38746097      0.72034259
C       1.49313798      0.66409671      0.21929724
C       1.11610697      0.16506525     -1.03019930
O      -0.10925105      0.43035683     -1.59844190
C      -1.22332247      0.25727535     -0.80871434
C      -2.19430589      1.25804713     -0.85584086
C      -3.36358390      1.12851922     -0.10576209
C      -3.56684235     -0.00806930      0.67772150
C      -2.60560348     -1.01932320      0.70642868
C      -1.43521149     -0.89224741     -0.04312491
C       2.02072980     -0.57433203     -1.79277645
C       3.29270268     -0.84933585     -1.28972015
H       4.65520501     -0.58408465      0.35857984
H       3.05996091      0.76935563      1.69451812
H       0.80660385      1.27095003      0.80282018
H      -2.03724594      2.13849915     -1.47258126
H      -4.11728717      1.91092331     -0.13567606
H      -4.47905641     -0.10978635      1.26024832
H      -2.77045102     -1.90972329      1.30749278
H      -0.69978784     -1.69167299     -0.03009560
H       1.73264105     -0.93866752     -2.77486484
H       3.99561029     -1.43168705     -1.87955682
