43
COc1ccc(CN(CCN(C)C)c2ncccn2)cc1
C       5.66198192     -2.06907072      0.70680746
O       4.68507950     -2.30179771     -0.29996116
C       3.69575214     -1.36566267     -0.42671061
C       2.75796516     -1.63979885     -1.42506436
C       1.69133662     -0.76940130     -1.66237674
C       1.54630413      0.39421454     -0.89728514
C       0.39017801      1.34562157     -1.13783963
N      -0.51491088      1.43367242      0.00806896
C      -1.00620327      0.19716087      0.64200080
C      -1.97159233     -0.60639253     -0.26449857
N      -2.40885732     -1.90282325      0.30207076
C      -1.31147967     -2.87289066      0.34482763
C      -3.51476850     -2.44436222     -0.49191240
C      -1.44886705      2.46714649     -0.07763282
N      -2.47882291      2.48763098      0.78586433
C      -3.35967172      3.50220687      0.70309125
C      -3.26368234      4.51307666     -0.21491108
C      -2.19009331      4.42099534     -1.05965249
N      -1.28688402      3.42283886     -1.01084317
C       2.49279611      0.66783993      0.10092420
C       3.55944054     -0.20633888      0.33623313
H       6.37374010     -2.89982414      0.68005131
H       6.21932637     -1.14710158      0.51074898
H       5.20684870     -2.05294171      1.70265487
H       2.86036808     -2.54146866     -2.02398273
H       0.97608406     -1.01013963     -2.44505951
H       0.84841008      2.31917647     -1.36086139
H      -0.16250464      1.04299359     -2.03699656
H      -0.14430027     -0.41996339      0.91210682
H      -1.49081259      0.41321002      1.60351948
H      -2.85929246      0.01636017     -0.43380022
H      -1.52049510     -0.76663840     -1.25184032
H      -0.87143887     -3.04366531     -0.64433967
H      -1.66619549     -3.83554895      0.73103347
H      -0.51961341     -2.55064954      1.02731431
H      -4.36728605     -1.75596685     -0.48657882
H      -3.87396983     -3.38579034     -0.06116041
H      -3.22519235     -2.62878559     -1.53288336
H      -4.16873842      3.47024466      1.42637029
H      -3.97787357      5.32129527     -0.26675180
H      -2.01133672      5.16821140     -1.82679876
H       2.38913271      1.56463582      0.70985395
H       4.26013886      0.04849094      1.12385894
