28
CN1[C@H]2CC[C@@H]1[C@@H](C(=O)O)[C@@H](O)C2
C      -1.18261240     -2.07021346     -0.97411561
N      -0.39913626     -0.87114513     -0.68216777
C      -1.16008072      0.37456914     -0.88111273
C      -2.01302792      0.49809583      0.38632379
C      -1.23285166     -0.27348781      1.45573227
C       0.02153965     -0.78660433      0.73292641
C       1.18623063      0.22898799      0.81452790
C       2.40137372     -0.31571569      0.09777020
O       3.00049410      0.20558189     -0.83146514
O       2.86117938     -1.46369925      0.63810721
C       0.75500642      1.60592507      0.26591851
O       1.84740232      2.49725725      0.05421413
C      -0.11651949      1.50224840     -0.99354657
H      -0.57320214     -2.96518998     -0.80720094
H      -2.09263879     -2.16333981     -0.37284649
H      -1.47212985     -2.08044545     -2.03065644
H      -1.77097937      0.36108481     -1.79060026
H      -2.99280769      0.02789112      0.24029560
H      -2.18928702      1.53820144      0.67923513
H      -1.84075316     -1.11238426      1.81531958
H      -0.99720902      0.35331584      2.32195040
H       0.34052315     -1.75731271      1.13002306
H       1.49741727      0.37073803      1.85844154
H       3.63937993     -1.68666557      0.08514546
H       0.15224381      2.09317022      1.04203620
H       2.42812675      2.08544672     -0.62010676
H       0.51832269      1.33970600     -1.87479086
H      -0.61600432      2.46398371     -1.16563444
