40
Cc1ccc(-c2cc(C(F)(F)F)nn2-c2ccc(S(N)(=O)=O)cc2)cc1
C       3.98335176      3.63454422      0.63208939
C       3.32441365      2.29642403      0.46984468
C       3.45646261      1.58126742     -0.72598294
C       2.81734723      0.34942273     -0.88923855
C       2.01875017     -0.17414149      0.13373047
C       1.36343773     -1.46731065     -0.03506371
C       1.98625522     -2.69550691     -0.16132949
C       0.96358881     -3.66565000     -0.12314044
C       1.13842255     -5.15913729     -0.18543273
F       2.44625901     -5.50704562     -0.34503835
F       0.71320242     -5.78058831      0.94624638
F       0.46563049     -5.71877404     -1.22575364
N      -0.23711351     -3.08018478      0.01064283
N      -0.00668304     -1.73504643     -0.02087370
C      -1.13453867     -0.85200105     -0.05408472
C      -1.02242049      0.49926330     -0.40879294
C      -2.15364856      1.32416580     -0.43027198
C      -3.40650131      0.79531017     -0.11572401
S      -4.82887165      1.84557297     -0.11246013
N      -5.42135260      1.63238770     -1.66828595
O      -4.40273808      3.22356664     -0.03627665
O      -5.82591352      1.29321649      0.77412454
C      -3.53960674     -0.54840324      0.23232350
C      -2.40848187     -1.36944167      0.25188526
C       1.88857152      0.53875473      1.33155792
C       2.52796370      1.77046691      1.49338732
H       4.23896577      3.81949976      1.68073457
H       3.31175683      4.42629715      0.28626768
H       4.91442855      3.68373048      0.05774181
H       4.06177151      1.97776933     -1.53845848
H       2.94041886     -0.19122209     -1.82502034
H       3.05329791     -2.87151915     -0.21518102
H      -0.08187804      0.94816240     -0.70797891
H      -2.04627074      2.37258228     -0.70198056
H      -6.34903704      1.20913456     -1.63070224
H      -5.39215578      2.51756251     -2.17468342
H      -4.51123988     -0.96539431      0.48818889
H      -2.53664760     -2.41645684      0.52517751
H       1.28744612      0.14404803      2.14806683
H       2.40335671      2.31467427      2.42733124
