13
CCC1CO1
C      -1.56276735      0.48815556      0.24964958
C      -0.61942963     -0.64697695     -0.11205268
C       0.68088127     -0.12569188     -0.63240680
C       1.83847235      0.15475086      0.28854532
O       1.77564163     -1.04092639     -0.50347761
H      -1.13025692      1.12364691      1.02948122
H      -1.76862219      1.11986028     -0.62081165
H      -2.51387818      0.09176969      0.61811158
H      -0.46215235     -1.28006811      0.76926658
H      -1.08467345     -1.27520528     -0.87991413
H       0.59323801      0.42663628     -1.55842877
H       1.69630886      0.05477962      1.35709137
H       2.55723796      0.90926941     -0.00505399
