31
O=C1NC(=O)C(c2ccccc2)(c2ccccc2)N1
O      -0.28635530      4.09281645      1.09670204
C      -0.16514977      3.08497950      0.42414322
N      -0.15501374      3.02531157     -0.92213397
C      -0.13725613      1.73027153     -1.34297802
O      -0.20727938      1.40412935     -2.52199940
C      -0.03796870      0.78868841     -0.09987173
C      -1.26002914     -0.11327727      0.12813797
C      -2.36888047     -0.13265015     -0.73522186
C      -3.46580378     -0.96086034     -0.47811936
C      -3.47792241     -1.78310632      0.64486019
C      -2.39259734     -1.78146395      1.51458312
C      -1.29606646     -0.95517508      1.26049484
C       1.28377731      0.00864736     -0.15097479
C       2.35156364      0.26894624      0.72765653
C       3.53954528     -0.46319264      0.65076964
C       3.68439284     -1.46527274     -0.30464316
C       2.64350664     -1.73626667     -1.18743991
C       1.45563783     -1.00631023     -1.11294036
N      -0.04089460      1.81987108      0.92761596
H      -0.26435814      3.82215561     -1.52452708
H      -2.40722982      0.48682217     -1.62873756
H      -4.31264241     -0.96373649     -1.16049770
H      -4.33197389     -2.42648242      0.83962909
H      -2.39665364     -2.42577043      2.39015470
H      -0.45703946     -0.98052329      1.95424340
H       2.28162150      1.04824340      1.48319639
H       4.35500590     -0.24734131      1.33686035
H       4.60984504     -2.03206795     -0.36417965
H       2.75484625     -2.51449765     -1.93836208
H       0.65882790     -1.23508611     -1.82060830
H      -0.15745555      1.64219835      1.91418747
