35
CCCCCCCCCC(=O)OC
C      -6.17577417     -0.36862344      0.47699111
C      -4.77671003      0.10103636      0.84242762
C      -3.75686244     -0.29291033     -0.22571351
C      -2.35091793      0.18134838      0.14568768
C      -1.33017722     -0.21295048     -0.92318540
C       0.07649827      0.26201885     -0.55176215
C       1.09596066     -0.13717283     -1.62084820
C       2.50111573      0.40886437     -1.35430429
C       3.15048281     -0.17211754     -0.09867575
C       4.58351973      0.28337623      0.05536707
O       5.15564820      1.08926550     -0.66420012
O       5.14168924     -0.33881955      1.13325998
C       6.50114625      0.02664144      1.37380415
H      -6.88878180     -0.07638543      1.25424811
H      -6.21016120     -1.45816304      0.37670525
H      -6.50376004      0.07432564     -0.46881929
H      -4.49212963     -0.33387532      1.80760679
H      -4.78410432      1.19016269      0.96674184
H      -3.75643777     -1.38279766     -0.34906599
H      -4.04841336      0.14117191     -1.18989181
H      -2.05960031     -0.25287367      1.10984001
H      -2.35139017      1.27123385      0.26877263
H      -1.32899835     -1.30287024     -1.04605831
H      -1.62228087      0.22110091     -1.88716478
H       0.35672539     -0.17123017      0.41486561
H       0.07613830      1.35217993     -0.43267784
H       1.13611460     -1.23002351     -1.70494247
H       0.76126908      0.24198468     -2.59445927
H       2.46519982      1.50307375     -1.28168613
H       3.12917902      0.17917199     -2.22460654
H       2.60371346      0.14516523      0.79506882
H       3.14468028     -1.26638937     -0.15508845
H       6.85018845     -0.52543192      2.25081017
H       7.12876203     -0.24718032      0.51993986
H       6.57846831      1.09769310      1.58550341
