12
CCCS
C      -1.52633574     -0.23253235     -0.51134208
C      -0.10227818     -0.48542121     -0.03838691
C       0.76158390      0.75992758     -0.20730533
S       2.45595415      0.44732226      0.36565166
H      -1.54476075      0.04281031     -1.57071037
H      -2.13359278     -1.13421380     -0.38411577
H      -1.99268528      0.57485481      0.06229296
H      -0.13012325     -0.79094667      1.01460602
H       0.31557848     -1.32141067     -0.61232237
H       0.80147890      1.06283107     -1.25851874
H       0.35103575      1.59424436      0.37035805
H       2.74414480     -0.51746568     -0.52029130
