17
Cc1ccc(N)cc1
C      -2.69957896      0.09599606     -0.12647951
C      -1.20359797      0.04526486     -0.03972470
C      -0.54296467     -1.17413859      0.13835951
C       0.85401780     -1.22306316      0.18402339
C       1.61363154     -0.05585869      0.08588526
N       3.01034686     -0.12565416      0.01527358
C       0.95479908      1.14873857     -0.16688964
C      -0.44187799      1.20485093     -0.21361657
H      -3.15312232     -0.68511787      0.49270407
H      -3.07907228      1.05757243      0.23488557
H      -3.01969380     -0.04382794     -1.16354673
H      -1.10896690     -2.09810585      0.22973787
H       1.34389744     -2.18639692      0.29577244
H       3.47337558      0.74378168      0.25980164
H       3.40256910     -0.92259622      0.50634744
H       1.52429494      2.05910999     -0.33235905
H      -0.92805744      2.15944487     -0.40017456
