30
CC(CCO)CC(C)(C)C
C      -1.10824886     -1.67170555     -0.28353418
C      -0.94681038     -0.17319893     -0.53457709
C      -2.28234238      0.56519657     -0.28216523
C      -2.81467300      0.48950396      1.14591720
O      -4.06440132      1.16653469      1.22362391
C       0.20099016      0.47758252      0.27480897
C       1.67325455      0.06072720     -0.01877950
C       1.96058785     -0.02745108     -1.52477692
C       2.59408887      1.14600625      0.58549787
C       2.04054560     -1.27254174      0.65566865
H      -2.06410642     -2.03574273     -0.67624503
H      -1.06675162     -1.91116709      0.78368449
H      -0.32886689     -2.24009115     -0.79715953
H      -0.73673499     -0.03865785     -1.60295898
H      -2.17359297      1.62044271     -0.56596542
H      -3.04810052      0.17060683     -0.96360790
H      -2.98235265     -0.54577292      1.45494602
H      -2.13322859      0.95811371      1.86127425
H      -3.91144242      2.09293319      0.97065331
H       0.12609859      1.56097720      0.10217548
H       0.01256714      0.33901694      1.34745144
H       1.67997679      0.90070840     -2.03490199
H       3.02650652     -0.20018973     -1.71346256
H       1.41419536     -0.85157710     -1.99454052
H       2.41335474      2.12299637      0.12287030
H       3.65183800      0.90186190      0.43399946
H       2.42715520      1.24956496      1.66374165
H       3.11788853     -1.46400298      0.58339749
H       1.77982666     -1.26386850      1.71979538
H       1.54277842     -2.12680605      0.19381963
