29
CCNc1nc(Cl)nc(NC(C)(C)C#N)n1
C      -4.44934333      1.30417026      0.51286697
C      -3.55137539      0.07701816      0.50277816
N      -2.36053206      0.35909003     -0.27991817
C      -1.42164258     -0.66389597     -0.31314994
N      -1.80265296     -1.92625063     -0.26720309
C      -0.79480638     -2.78075442     -0.31381687
Cl     -1.21296821     -4.43708925     -0.24973069
N       0.50122889     -2.51380235     -0.38333369
C       0.76854868     -1.22415798     -0.42690812
N       2.11407857     -0.90574001     -0.50698315
C       2.60073649      0.34688527      0.09665597
C       4.13657245      0.21744338      0.19638872
C       2.29428195      1.54093544     -0.82281346
C       2.07678172      0.60091525      1.46874424
N       1.68347552      0.79218654      2.54537138
N      -0.15422258     -0.27264681     -0.39331994
H      -3.93673857      2.16292621      0.95931776
H      -4.74502483      1.58246053     -0.50429832
H      -5.35666503      1.10812440      1.09248016
H      -4.11104360     -0.76154801      0.07164976
H      -3.28345051     -0.17971956      1.53488041
H      -1.86125940      1.20309194     -0.01778330
H       2.61306814     -1.74300437     -0.22001345
H       4.42405138     -0.62068696      0.84357460
H       4.59120269      1.12360826      0.61448244
H       4.58495413      0.03795848     -0.78807905
H       1.22442883      1.76613296     -0.87750963
H       2.78578756      2.45334306     -0.46344084
H       2.64252844      1.35300615     -1.84520770
