14
C1CSCCS1
C       1.48798228      0.53557984     -0.14742806
C       1.23886853     -0.93141377     -0.47831207
S      -0.31028299     -1.20864308     -1.39755620
C      -1.48798229     -0.53557932     -0.18028638
C      -1.23886824      0.93141338      0.15059965
S       0.31028368      1.20864156      1.06984409
H       2.48769451      0.63602730      0.28853171
H       1.47070355      1.15847833     -1.04862537
H       1.23832974     -1.55172455      0.42483386
H       2.05419502     -1.29533466     -1.11264558
H      -1.47070647     -1.15847793      0.72091120
H      -2.48769394     -0.63602478     -0.61624852
H      -2.05419611      1.29533370      0.78493234
H      -1.23832725      1.55172397     -0.75254631
