37
O=C1OC2(c3ccc(O)cc3Oc3cc(O)ccc32)c2ccccc21
O       2.34317318     -1.07822602     -3.24201932
C       1.80192706     -0.70894374     -2.21974093
O       0.46161378     -0.71062511     -1.96303691
C       0.15248020     -0.20937981     -0.63297757
C      -0.53770846     -1.31147085      0.14849560
C      -0.10938897     -2.65242698      0.10313401
C      -0.73656614     -3.63039583      0.87927467
C      -1.79055394     -3.27045907      1.71022899
O      -2.42756825     -4.19024399      2.48890635
C      -2.22965250     -1.95460392      1.77106502
C      -1.60996544     -0.98137943      0.98485271
O      -2.11367341      0.29208264      1.09601715
C      -1.78415002      1.20493520      0.12271907
C      -2.57664238      2.35551736      0.07427432
C      -2.31352461      3.32542889     -0.88500456
O      -3.06216666      4.46110352     -0.97390213
C      -1.27218814      3.16477123     -1.78914732
C      -0.47599362      2.01933765     -1.73272592
C      -0.72165265      1.02231132     -0.77019723
C       1.50785393      0.11317019     -0.08414165
C       1.88728855      0.62900074      1.14759735
C       3.24936719      0.83261034      1.39206765
C       4.20951356      0.52209488      0.41412235
C       3.81771331      0.00379069     -0.82046565
C       2.46341600     -0.18659400     -1.03383762
H       0.71863142     -2.94757877     -0.53862290
H      -0.38753629     -4.65705325      0.82332104
H      -2.03780893     -5.06448860      2.32288054
H      -3.05798617     -1.68923612      2.42150763
H      -3.39055754      2.47144363      0.78266450
H      -3.76671633      4.42495924     -0.30601854
H      -1.07818282      3.92979004     -2.53635611
H       0.33757367      1.91544823     -2.44766178
H       1.14957272      0.87173169      1.90789528
H       3.57052135      1.23698214      2.35024756
H       5.26435515      0.68818185      0.62253473
H       4.54518220     -0.24158596     -1.58795038
