9
C=CCBr
C      -1.35476726     -0.14698570      0.46625214
C      -0.34441998      0.33404012     -0.27062141
C       1.03616246     -0.23169085     -0.27774517
Br      2.25886139      1.14028503      0.35477791
H      -1.22643436     -0.99496485      1.13213874
H      -2.33942439      0.30920103      0.42189681
H      -0.53171593      1.18454873     -0.92348648
H       1.15343119     -1.09220275      0.38616135
H       1.34830688     -0.50223076     -1.28937390
