42
CN1CCN(C2=Nc3cc(Cl)ccc3Nc3ccccc32)CC1
C       4.73998743      0.94404112      0.54075579
N       3.37719816      1.27142584      0.94964302
C       2.59839203      1.87239736     -0.16106268
C       2.16021528      0.88016116     -1.26380168
N       1.43252409     -0.27827279     -0.69729839
C       0.03793071     -0.18227695     -0.53058371
N      -0.50019986      1.00310635     -0.57965425
C      -1.85269924      1.31488040     -0.40313877
C      -2.30465782      2.44097535     -1.10750266
C      -3.58680423      2.94449585     -0.91089197
Cl     -4.11225513      4.32566955     -1.79218124
C      -4.44014275      2.34651260      0.00686961
C      -4.00546163      1.22872067      0.71984164
C      -2.71794745      0.69314295      0.51793047
N      -2.37190341     -0.48863934      1.21651134
C      -1.77889248     -1.58925143      0.56313483
C      -2.32117440     -2.86949885      0.78755753
C      -1.84828741     -3.99025303      0.10068114
C      -0.82359809     -3.85176103     -0.82706813
C      -0.25883826     -2.59642463     -1.04458030
C      -0.71772966     -1.46589721     -0.34109311
C       2.22341299     -0.93558107      0.36887350
C       2.64994869      0.08376703      1.45225078
H       5.26732129      1.84861590      0.21788290
H       5.30485471      0.54234681      1.38937633
H       4.78848998      0.21485266     -0.27376836
H       1.70834405      2.34170336      0.27623318
H       3.16895716      2.69247676     -0.61413212
H       3.04126033      0.50532196     -1.79851941
H       1.55290642      1.39546002     -2.01754766
H      -1.62552747      2.93212601     -1.79945792
H      -5.43955472      2.73950218      0.17067011
H      -4.68986346      0.76438740      1.42503449
H      -3.08818313     -0.76726591      1.87666707
H      -3.14316943     -3.00144170      1.48702401
H      -2.29227408     -4.96600676      0.28104312
H      -0.45824125     -4.71633985     -1.37486713
H       0.55308824     -2.49544093     -1.76154037
H       3.10697438     -1.39921273     -0.08520207
H       1.66479470     -1.74622908      0.84824730
H       3.25093430     -0.42490252      2.21598680
H       1.74987042      0.43860653      1.97167699
