24
C[C@H](N)[C@@H](O)c1ccccc1
C      -1.88068749     -0.01481303     -1.29611655
C      -1.74031971     -0.31008864      0.19524870
N      -3.04320077     -0.10410390      0.87525207
C      -0.65574007      0.57010876      0.88428190
O      -0.75895784      0.38021433      2.30336212
C       0.75418125      0.24484284      0.44529949
C       1.40109052     -0.91958945      0.88707232
C       2.69248891     -1.22586200      0.45481471
C       3.35386385     -0.37231551     -0.42531372
C       2.72635106      0.78928407     -0.87057309
C       1.43468329      1.09701477     -0.43812844
H      -2.11573200      1.04017719     -1.47509589
H      -0.95787771     -0.25307322     -1.83432420
H      -2.67994148     -0.61824544     -1.74088165
H      -1.48647486     -1.36879574      0.32879200
H      -3.38711848      0.83478734      0.66458182
H      -3.72931980     -0.74007479      0.46455410
H      -0.86835915      1.63143627      0.70466018
H      -1.71045628      0.19423376      2.44547025
H       0.89959205     -1.58714494      1.58529794
H       3.18309514     -2.12748794      0.81159653
H       4.36074551     -0.60912291     -0.75831504
H       3.24473843      1.45858443     -1.55208771
H       0.96335563      2.01003374     -0.79460803
