28
NC(Cc1c[nH]c2ccc(O)cc12)C(=O)O
N       2.39825241      0.63276004      0.80473986
C       2.53471659      0.41290900     -0.67015679
C       1.21351259      0.50420054     -1.45321973
C       0.10007486     -0.33924459     -0.90404861
C      -0.04851411     -1.70178648     -1.07814708
N      -1.17347610     -2.10396692     -0.41232938
C      -1.78240799     -1.02580776      0.18512534
C      -2.94829768     -0.96770142      0.95865558
C      -3.34491778      0.28295836      1.43774693
C      -2.60278923      1.41906623      1.14601137
O      -3.05577859      2.60952040      1.63944810
C      -1.43794468      1.35491202      0.37716049
C      -1.01343949      0.10054403     -0.11406849
C       3.19384560     -0.95463021     -0.90108480
O       3.63309877     -1.35242602     -1.96862012
O       3.22830560     -1.68721698      0.24371175
H       1.65251372      1.31423033      0.96457070
H       3.25453322      1.08272982      1.14152908
H       3.23004667      1.17036953     -1.05119008
H       1.38283610      0.21962233     -2.50011495
H       0.89022403      1.55264697     -1.47407450
H       0.55859872     -2.42292133     -1.61219118
H      -1.51414949     -3.05451400     -0.36633588
H      -3.52957173     -1.85670750      1.18016370
H      -4.24580434      0.36843156      2.03996829
H      -2.48310365      3.32060244      1.31023735
H      -0.86636240      2.24700857      0.15177784
H       2.77599835     -1.12558895      0.92473523
