16
O=[N+]([O-])c1ccc(F)c([N+](=O)[O-])c1
O      -3.42840547     -0.88604254      0.22475379
N      -2.29461541     -1.37843009      0.15641287
O      -2.04758791     -2.59137844      0.15835170
C      -1.15523727     -0.45471577      0.06307753
C      -1.38790180      0.92851391     -0.02698145
C      -0.30535441      1.81058077     -0.11466317
C       0.99731867      1.31590742     -0.11658877
F       2.01243944      2.18737784     -0.17115091
C       1.21576163     -0.05614560     -0.03367156
N       2.57356702     -0.55734660     -0.03775601
O       2.84572664     -1.43460800      0.79264174
O       3.35037257     -0.10625379     -0.88759261
C       0.15123732     -0.96188276      0.06293508
H      -2.39995978      1.33231037     -0.02708226
H      -0.47076137      2.88364910     -0.17711272
H       0.34340013     -2.03153583      0.13442675
