26
O=C(O)CCCCC1CCSS1
O       3.90041416     -0.15813573      0.63264640
C       3.25601363     -1.15909410      0.37137142
O       3.23647252     -2.20403510      1.22090373
C       2.45488837     -1.42511066     -0.87467621
C       1.91370755     -0.14482588     -1.51065243
C       0.87883379      0.60725946     -0.66267344
C      -0.42065250     -0.18041741     -0.45160804
C      -1.52162188      0.63688110      0.23842903
C      -2.84924202     -0.13031668      0.27599080
C      -3.86082775      0.62293030      1.13130798
S      -3.04069780      1.00485289      2.69701782
S      -1.12189481      1.01719511      1.97682774
H       3.78944238     -1.90697867      1.97409988
H       3.11832717     -1.93312086     -1.58362803
H       1.63423454     -2.11057378     -0.64151359
H       1.46665002     -0.39520852     -2.48051078
H       2.74793449      0.53652513     -1.71982404
H       0.64269677      1.54791626     -1.17593026
H       1.32243712      0.88075979      0.30037358
H      -0.22205627     -1.09380642      0.12177751
H      -0.79161184     -0.50398286     -1.43284080
H      -1.66330414      1.58642165     -0.29151326
H      -2.70428517     -1.14717088      0.66723318
H      -3.24399883     -0.24671720     -0.74057284
H      -4.16545707      1.55690132      0.64792996
H      -4.75640242      0.02107163      1.31003467
