24
COC(=O)c1c(Cl)c(Cl)c(C(=O)OC)c(Cl)c1Cl
C       4.89791861     -0.04750972     -0.33048338
O       3.51179322     -0.22516847     -0.03371567
C       2.69470420      0.52541963     -0.80654679
O       2.99233006      1.30489887     -1.69173282
C       1.31549510      0.24732715     -0.39898997
C       0.72303124      1.03338313      0.60119100
Cl      1.63520502      2.29991754      1.36528200
C      -0.60500125      0.78130588      0.97623235
Cl     -1.37301736      1.73116993      2.21232123
C      -1.31549487     -0.24732512      0.33875613
C      -2.69470431     -0.52541702      0.74631219
O      -2.99233066     -1.30489165      1.63150211
O      -3.51179297      0.22516609     -0.02652419
C      -4.89791867      0.04750577      0.27024108
C      -0.72303093     -1.03338131     -0.66142460
Cl     -1.63520448     -2.29991624     -1.42551526
C       0.60500145     -0.78130381     -1.03646615
Cl      1.37301705     -1.73116694     -2.27255597
H       5.19639765      0.99115551     -0.15690379
H       5.47338442     -0.69076533      0.34082518
H       5.10950762     -0.34469916     -1.36244933
H      -5.47338449      0.69075481     -0.40107380
H      -5.19639474     -0.99116131      0.09666811
H      -5.10951089      0.34470175      1.30220434
