19
CC(=O)Nc1nnc(S(N)(=O)=O)s1
C      -3.07518808      0.42725918      1.61212846
C      -3.01554931     -0.93699927      0.97830287
O      -3.96973475     -1.71442470      1.05965559
N      -1.90556169     -1.34016291      0.30179453
C      -0.76688881     -0.61441266      0.11482561
N      -0.46085055      0.59597510      0.51641104
N       0.81010252      0.96461551      0.11128109
C       1.38769139      0.00019063     -0.57656770
S       2.99725289      0.04265352     -1.27849000
N       3.72924973      1.52346898     -0.94731180
O       3.78174939     -0.94632078     -0.57332701
O       2.82331744      0.00608441     -2.71347048
S       0.44730648     -1.41136841     -0.78359260
H      -2.98042492      1.20536348      0.85058021
H      -4.04580234      0.55243997      2.10251489
H      -2.29814540      0.52738294      2.37407465
H      -1.94790472     -2.26915240     -0.09265641
H       4.56675909      1.37365546     -0.38319449
H       3.92262165      2.01375195     -1.82156793
