22
CCOC(C)OCC
C       3.17026986      1.13511970     -0.65660018
C       1.74436799      0.63477610     -0.78055355
O       1.48655563     -0.25405346      0.30216908
C       0.17851564     -0.82511056      0.23108200
C       0.07417040     -1.82958020      1.37116217
O      -0.81396672      0.18652479      0.38331028
C      -2.07084532     -0.17567206     -0.17871121
C      -3.03617398      0.97377856      0.03494889
H       3.87584969      0.29795053     -0.67720603
H       3.41464204      1.82292773     -1.47093020
H       3.31608618      1.65139802      0.29803052
H       1.05377093      1.48397816     -0.74482105
H       1.61869930      0.10870199     -1.73328170
H       0.07337188     -1.34251778     -0.73125862
H       0.88148685     -2.56706542      1.31595582
H      -0.88504403     -2.35463494      1.36224470
H       0.15982378     -1.32168202      2.33856043
H      -2.45986667     -1.07707614      0.30482237
H      -1.95532999     -0.36495758     -1.25155880
H      -4.01828142      0.74215909     -0.38663727
H      -3.15116000      1.18702114      1.10285567
H      -2.65694202      1.88801435     -0.43358332
