13
Oc1cc(Cl)cc(Cl)c1Cl
O      -1.78917017     -1.78189582     -0.04707509
C      -0.80143171     -0.83364846     -0.02057241
C       0.51076933     -1.29411341      0.03958019
C       1.55476644     -0.37363066      0.06877802
Cl      3.18090089     -0.92966726      0.14311110
C       1.29494130      0.99621267      0.03832596
C      -0.02599501      1.45263956     -0.02212355
Cl     -0.28128268      3.16168896     -0.05730716
C      -1.08483756      0.53715004     -0.05199909
Cl     -2.73922998      1.03973911     -0.12670707
H      -2.64736343     -1.31792689     -0.08877611
H       0.70932035     -2.36236802      0.06316235
H       2.11861222      1.70582018      0.06160286
