28
Nc1ccc(S(=O)(=O)Nc2ccccn2)cc1
N      -3.56952779      2.09834338      0.31210652
C      -2.76610365      1.08027355     -0.21381104
C      -2.20948497      0.11635831      0.63334391
C      -1.31073882     -0.83422169      0.14245906
C      -0.92451832     -0.78456466     -1.19832963
S       0.20875223     -1.99447558     -1.84441179
O      -0.18212852     -2.25655608     -3.21424860
O       0.30831956     -3.07386474     -0.88351336
N       1.67669809     -1.17612029     -1.91018747
C       2.11994495     -0.57741701     -0.71767603
C       2.49347160     -1.29816247      0.40296274
C       2.88294656     -0.58521892      1.53189444
C       2.88385648      0.80551765      1.49087217
C       2.49927555      1.42846605      0.31319767
N       2.12012316      0.76378624     -0.80030880
C      -1.43841676      0.19633808     -2.04882464
C      -2.33636622      1.14031753     -1.54372582
H      -4.16688788      2.54674298     -0.37578669
H      -4.08188337      1.82803403      1.14597878
H      -2.47644869      0.09545410      1.68690336
H      -0.91037659     -1.59113346      0.81249115
H       1.68862406     -0.50428158     -2.67429820
H       2.48739486     -2.38248100      0.40403164
H       3.18277848     -1.11024092      2.43458653
H       3.17962464      1.39066712      2.35498187
H       2.48482314      2.51214077      0.23390899
H      -1.14017761      0.24213276     -3.09323690
H      -2.70357417      1.92416586     -2.20144619
