34
CC(C)NC(=O)N1CC(=O)N(c2cc(Cl)cc(Cl)c2)C1=O
C       4.16285735      1.31233150     -1.41759755
C       3.90317135      0.33496527     -0.27614980
C       4.38657742      0.91215299      1.05237585
N       2.48620048      0.01316484     -0.20990999
C       2.01908461     -1.13761431      0.36569799
O       2.75752580     -2.03882130      0.75592191
N       0.64133403     -1.22804628      0.46642414
C       0.04848941     -2.41849274      0.99187912
C      -1.42032972     -2.08531694      0.93157304
O      -2.27498956     -2.89129245      1.27882045
N      -1.58347335     -0.80898446      0.43539722
C      -2.83783112     -0.14289467      0.24224864
C      -4.03725961     -0.66470398      0.75800360
C      -5.26057552     -0.00998903      0.56679452
Cl     -6.70052737     -0.68527964      1.22706106
C      -5.32882209      1.17894228     -0.14360671
C      -4.15777362      1.70925399     -0.66326982
Cl     -4.21743266      3.18003653     -1.55700039
C      -2.92970044      1.06247474     -0.47575306
C      -0.33691042     -0.26957323      0.16904827
O      -0.06625784      0.86011636     -0.22194291
H       5.23027732      1.54063297     -1.50264106
H       3.82911843      0.89028568     -2.37188564
H       3.62247251      2.25361416     -1.26694550
H       4.45382270     -0.59242893     -0.47419810
H       5.45486104      1.14840464      1.00992789
H       3.84287240      1.82883491      1.30686272
H       4.23140093      0.20055445      1.87038422
H       1.81838587      0.77606330     -0.30207497
H       0.28762834     -3.27342300      0.35413256
H       0.37333242     -2.58268611      2.02268080
H      -4.05927682     -1.58202301      1.33911452
H      -6.27932245      1.68342030     -0.29046201
H      -2.05892984      1.52632118     -0.92958526
