23
c1ccc2c(c1)Nc1ccccc1S2
C      -3.74669125      0.16902585      0.09137033
C      -3.68115210     -1.21713868      0.00428135
C      -2.43911251     -1.84983055     -0.04873744
C      -1.25165851     -1.10203597     -0.02157953
C      -1.31230488      0.30020303      0.04453228
C      -2.57036707      0.92058857      0.11863284
N      -0.15750156      1.09921646      0.11950639
C       1.17400711      0.66019028      0.01017078
C       2.20602434      1.61215119      0.05261664
C       3.54599819      1.22491742     -0.00943461
C       3.87390106     -0.12326026     -0.10014750
C       2.86130272     -1.08239562     -0.12199879
C       1.51172565     -0.70193215     -0.05977192
S       0.28876607     -2.00214533     -0.08097697
H      -4.71154633      0.66673582      0.14385027
H      -4.59326685     -1.80786087     -0.01536816
H      -2.40222150     -2.93540796     -0.10755818
H      -2.64313264      2.00192735      0.20092495
H      -0.30269047      2.08623759     -0.04546386
H       1.97136111      2.67004910      0.13715539
H       4.33115905      1.97600816      0.01884741
H       4.91520811     -0.43115039     -0.14680051
H       3.13219224     -2.13409305     -0.18405117
