24
CN(C)C(=O)Nc1ccc(Cl)cc1
C      -3.54930484      0.99316298      0.46212630
N      -2.44202572      0.05455555      0.37995819
C      -2.79498396     -1.28071990     -0.08564542
C      -1.16258717      0.60525916      0.24619948
O      -0.99168242      1.81630736      0.13437736
N      -0.14911177     -0.32676154      0.29048190
C       1.21913336     -0.11433844      0.02891970
C       2.11001642     -1.13359849      0.39144347
C       3.48083792     -1.00101578      0.14895914
C       3.96567751      0.15061868     -0.46455960
Cl      5.65107517      0.31528309     -0.76536749
C       3.09066796      1.16589639     -0.83944907
C       1.71910457      1.03109545     -0.59607660
H      -3.25750722      1.89686912      1.00551276
H      -4.38501088      0.52392285      0.98938278
H      -3.85691469      1.26907265     -0.55111244
H      -1.94209021     -1.95856029     -0.13925832
H      -3.54244046     -1.70479959      0.59109103
H      -3.21997843     -1.19474992     -1.09084363
H      -0.38022842     -1.17109824      0.78956663
H       1.75233453     -2.04139752      0.87015068
H       4.16049191     -1.79717412      0.44012653
H       3.46186088      2.06562884     -1.32286334
H       1.06266594      1.83654172     -0.91312005
