29
CN1C(=O)CCS(=O)(=O)C1c1ccc(Cl)cc1
C      -0.44213494      1.64161443      2.11102459
N      -1.01398819      0.72006562      1.13854613
C      -2.08974266      1.14850983      0.37987837
O      -2.56642773      2.27721549      0.48316139
C      -2.67489825      0.17621145     -0.62099766
C      -2.73658751     -1.22823212     -0.06633975
S      -1.09776441     -1.89000717      0.03717783
O      -0.64930998     -2.08416815     -1.32967001
O      -1.14277487     -3.00802056      0.96281387
C      -0.22735851     -0.49785374      0.83323719
C       1.06277007     -0.22580748      0.07245176
C       2.22366670     -0.95072636      0.40098892
C       3.42222275     -0.73104837     -0.28310225
C       3.47402181      0.21322265     -1.30414345
Cl      4.95016897      0.48641631     -2.14356905
C       2.33665245      0.93804611     -1.64820997
C       1.13624489      0.71899583     -0.96593711
H      -1.17431508      2.38885410      2.42983208
H      -0.11326968      1.08199322      2.99137845
H       0.41074417      2.15669509      1.66037654
H      -3.69562327      0.50829610     -0.84412864
H      -2.09553059      0.23646619     -1.54804841
H      -3.17306563     -1.25267074      0.93730247
H      -3.31357825     -1.88860389     -0.72038129
H       0.03554301     -0.90091248      1.82132218
H       2.20588444     -1.70344347      1.18845130
H       4.30780785     -1.30344172     -0.01877371
H       2.37497534      1.67245351     -2.44890711
H       0.26566709      1.29988034     -1.26179525
