28
CC(c1cc2ccccc2s1)N(O)C(N)=O
C       2.09620309      1.79852664     -1.40769437
C       1.88911428      0.42002097     -0.77911517
C       0.41719675      0.08459379     -0.65284220
C      -0.56723088      0.72010081      0.07904900
C      -1.86135373      0.11600215     -0.05343704
C      -3.10383183      0.46253805      0.52998264
C      -4.25092821     -0.28615857      0.24963879
C      -4.18265035     -1.37807089     -0.60441046
C      -2.97036192     -1.74300076     -1.19448040
C      -1.81759872     -0.98537861     -0.90913298
S      -0.22947779     -1.24431084     -1.51698467
N       2.56025137      0.31496552      0.52602714
O       2.17104042      1.30021159      1.47268403
C       2.89885354     -0.91672761      1.04731294
N       3.11060598     -0.90723900      2.39528860
O       3.05222507     -1.94454637      0.39900568
H       1.64364747      1.84575016     -2.40434333
H       1.65153289      2.59756431     -0.80386523
H       3.16460845      2.01883009     -1.50821257
H       2.37263094     -0.31397054     -1.43724479
H      -0.37255602      1.58784082      0.69781664
H      -3.16833581      1.31513703      1.20111375
H      -5.19916189     -0.01043830      0.70443140
H      -5.07840339     -1.95671003     -0.81735658
H      -2.91803092     -2.59849947     -1.86178102
H       3.00564873      1.80010471      1.55538424
H       2.50408906     -0.26360768      2.88713409
H       3.18227341     -1.83352798      2.79462646
