14
CNC(=O)NC
C      -2.40751970      0.30319112     -0.02429764
N      -1.11303290     -0.18821038      0.37664303
C      -0.00688464      0.14598298     -0.36570318
O      -0.03683882      0.78113274     -1.40956526
N       1.13752064     -0.33103078      0.22516139
C       2.40115364     -0.16820851     -0.44911262
H      -2.44434109      1.38377229      0.13929985
H      -3.16969928     -0.19074452      0.58252979
H      -2.57656744      0.08992454     -1.08343726
H      -0.93588701     -0.23566074      1.36921289
H       1.00334422     -1.19470551      0.73002722
H       3.20039903     -0.46022371      0.23576943
H       2.41725742     -0.80948237     -1.33471078
H       2.53109592      0.87426284     -0.75276717
