15
Oc1cccc(O)c1O
O       1.03936972     -0.82692003     -2.04933382
C       0.58082733     -0.19719282     -0.92575457
C       1.06252830      1.04640194     -0.52777907
C       0.55220459      1.63979601      0.63366982
C      -0.43173215      0.99130064      1.38793251
C      -0.89989272     -0.24861767      0.97522585
O      -1.85946016     -0.88336226      1.70889681
C      -0.39715964     -0.84117124     -0.17555815
O      -0.87644778     -2.06462640     -0.56002065
H       1.71237583     -0.25710782     -2.46066169
H       1.82540039      1.56689002     -1.09792076
H       0.92086763      2.61126270      0.95457425
H      -0.82888669      1.44953833      2.28886351
H      -2.02041489     -1.71978508      1.22723122
H      -0.37957978     -2.26640632     -1.37936525
