31
CC(C(=O)O)c1ccc(-c2ccccc2)c(F)c1
C       3.98151742      0.02024465      1.49727957
C       3.38305884      0.41694359      0.14494003
C       4.00747863     -0.33957669     -1.01441791
O       4.15923122      0.09252722     -2.14735339
O       4.35904429     -1.60877542     -0.72878078
C       1.86845203      0.31419999      0.12610497
C       1.09114836      1.43406373     -0.19832605
C      -0.30707633      1.35261405     -0.22889435
C      -0.97587619      0.15089635      0.05915446
C      -2.44771713      0.07748923      0.02352848
C      -3.17616404     -0.46429474      1.09611585
C      -4.57240161     -0.52458059      1.06571496
C      -5.26732905     -0.04361535     -0.04043923
C      -4.56739714      0.49554378     -1.11616177
C      -3.17112734      0.55520912     -1.08355831
C      -0.18362275     -0.96090531      0.37807615
F      -0.75484737     -2.14418095      0.65392325
C       1.21061785     -0.88944794      0.40983487
H       3.57987364      0.64905003      2.29967658
H       3.77207139     -1.02273815      1.75836512
H       5.07063472      0.14000959      1.48589234
H       3.67059856      1.46663894     -0.00867212
H       4.69105998     -1.95811767     -1.58287792
H       1.56420192      2.38637198     -0.43295555
H      -0.87619566      2.24845589     -0.47214524
H      -2.65575168     -0.84521330      1.97296922
H      -5.11392837     -0.94938918      1.90682534
H      -6.35262893     -0.09259138     -0.06543698
H      -5.10569420      0.86636512     -1.98444561
H      -2.64697723      0.96862153     -1.94296970
H       1.76574617     -1.79181814      0.65291816
