18
C=CCOCC1CO1
C      -3.08504493     -0.92630150      1.31698593
C      -2.20410313     -1.12810190      0.32811930
C      -1.42553233     -0.04976433     -0.35364339
O      -0.04620650     -0.38475933     -0.23949514
C       0.78129924      0.59632670     -0.86050693
C       2.20115691      0.16991135     -0.71228597
C       2.99694403      0.52288697      0.51445047
O       3.15652810      1.23805609     -0.72145625
H      -3.60976896     -1.76226303      1.76944110
H      -3.29576978      0.06628192      1.70217748
H      -2.02093545     -2.14253060     -0.01820090
H      -1.61083802      0.92859546      0.10432471
H      -1.70958636     -0.01052333     -1.41112629
H       0.60979240      1.57224738     -0.39093805
H       0.53211370      0.66835886     -1.92514099
H       2.43701739     -0.73892148     -1.24795826
H       3.79558521     -0.14361713      0.81430533
H       2.49734850      1.02884240      1.33094786
