38
CC(=O)CCCCn1c(=O)c2c(ncn2C)n(C)c1=O
C       5.87837251      0.41633106      0.29097836
C       4.52959492      0.61789458     -0.34957160
O       4.43118700      0.91206196     -1.53982907
C       3.32518678      0.45935305      0.56373857
C       1.98330426      0.53729598     -0.16448477
C       1.69116810     -0.72336325     -0.98618311
C       0.38343654     -0.63215833     -1.78426106
N      -0.80741257     -0.60199435     -0.93847947
C      -1.40939411      0.64207711     -0.71262152
O      -0.99919845      1.70538445     -1.16800094
C      -2.55810588      0.55864692      0.11860832
C      -3.01577123     -0.61054356      0.64384328
N      -4.12789764     -0.42492157      1.40817886
C      -4.35502458      0.87236417      1.34700072
N      -3.42362702      1.51203080      0.57247139
C      -3.37440635      2.92463143      0.29258799
N      -2.38870141     -1.80770147      0.40072025
C      -2.91087683     -3.03141786      0.98161993
C      -1.25136268     -1.83315289     -0.40774400
O      -0.65248849     -2.88588900     -0.64770649
H       6.66559207      0.55119955     -0.45596706
H       5.94486608     -0.59735870      0.69363498
H       6.01793564      1.14979428      1.08884306
H       3.41161284     -0.49474331      1.09497285
H       3.37637617      1.26803876      1.30179526
H       1.19722460      0.66511882      0.58875843
H       1.95564927      1.42096441     -0.81296090
H       1.66765740     -1.59248708     -0.31836948
H       2.50652577     -0.89647758     -1.69775313
H       0.31359816     -1.50640589     -2.44317794
H       0.40953989      0.24698565     -2.43810391
H      -5.16877978      1.39135846      1.83803754
H      -2.42749739      3.32085746      0.66759616
H      -3.45493846      3.06862866     -0.78770372
H      -4.20718354      3.42472284      0.79372822
H      -3.93721356     -3.18316931      0.63253392
H      -2.90401304     -2.94020477      2.07243293
H      -2.31493497     -3.90375148      0.70104816
