21
O=C(O)CCSCCC(=O)O
O      -3.16837463      1.13752611      1.13682862
C      -3.02120883      0.77833469     -0.01830368
O      -3.80320359      1.27483354     -0.99667331
C      -2.00804015     -0.19592063     -0.54850268
C      -1.23636917     -0.83081601      0.60019161
S      -0.04110978     -2.08277247      0.01221164
C       1.28367913     -1.01043020     -0.64371499
C       2.11404756     -0.38576946      0.46352248
C       3.20942435      0.43864114     -0.14212823
O       4.38012595      0.11868590     -0.25257573
O       2.77355335      1.62814425     -0.59837705
H      -4.41179372      1.88929522     -0.53461133
H      -1.33966497      0.35321369     -1.21889982
H      -2.54214633     -0.96529598     -1.11768779
H      -1.93305631     -1.34636121      1.27121788
H      -0.72318827     -0.07715275      1.20508368
H       1.92488414     -1.63961204     -1.27182165
H       0.85602397     -0.25159353     -1.30590551
H       1.52559318      0.25951998      1.12399913
H       2.57956372     -1.15205986      1.09452618
H       3.58126038      2.05958962     -0.95102325
