21
CCOC(C)(C)C
C       2.90413393      0.27887936      0.12886939
C       1.52043411     -0.22883136      0.49051070
O       0.58161312      0.40676598     -0.37024091
C      -0.80186976      0.06559277     -0.19651767
C      -1.30943637      0.45856802      1.19587729
C      -1.05495759     -1.42166176     -0.47008116
C      -1.55205180      0.89580814     -1.24810523
H       3.13505982      0.05620595     -0.91816646
H       3.66662950     -0.18067860      0.76401518
H       2.95768776      1.36667980      0.24295942
H       1.31177659      0.01626026      1.53563404
H       1.49180320     -1.31385253      0.35709505
H      -2.39787436      0.35847592      1.26784686
H      -0.87081521     -0.17154036      1.97679577
H      -1.03762859      1.49337106      1.43233799
H      -0.61597340     -2.05448786      0.30843223
H      -0.60189418     -1.72604194     -1.42018469
H      -2.12673623     -1.64484360     -0.50718041
H      -2.63215940      0.71866476     -1.21317541
H      -1.37234513      1.96699953     -1.09918318
H      -1.19539600      0.65966646     -2.25753878
