29
CCCCCCCC(=O)OC
C      -4.35017448     -1.29208240     -0.66984483
C      -3.74497239     -0.13501092      0.10902067
C      -2.29438204      0.12002907     -0.30298475
C      -1.69079049      1.28301847      0.48749130
C      -0.27633035      1.65758902      0.03563869
C       0.75891397      0.56470928      0.30794722
C       2.16774885      1.03439574     -0.05396051
C       3.20331938     -0.03508066      0.20443035
O       2.97906850     -1.14868160      0.65626340
O       4.43498675      0.43534782     -0.14493116
C       5.49307443     -0.50148846      0.06085323
H      -4.34536704     -1.08631012     -1.74500177
H      -5.38695864     -1.45637804     -0.36001828
H      -3.79246822     -2.21754790     -0.49431081
H      -3.79356041     -0.35847761      1.18113812
H      -4.34528136      0.76605206     -0.06247195
H      -1.70995131     -0.79163465     -0.13616504
H      -2.25147121      0.34271249     -1.37595142
H      -2.33123574      2.16604479      0.36972978
H      -1.68286920      1.03971185      1.55695439
H       0.02017774      2.57112856      0.56601053
H      -0.28451322      1.90226116     -1.03350103
H       0.52058502     -0.33496547     -0.27095196
H       0.72622588      0.27916314      1.36667581
H       2.43007140      1.91438058      0.54390488
H       2.20722449      1.29875165     -1.11663004
H       5.57164671     -0.76453190      1.12037705
H       6.42919571     -0.02848415     -0.24849919
H       5.33808730     -1.39553133     -0.55121271
