21
CN(CCO)CCO
C      -0.89861057     -0.61192767     -0.93597689
N       0.16200129      0.06212834     -0.17429712
C      -0.31028451      0.40432110      1.19246731
C      -1.49114729      1.39012198      1.24274617
O      -2.73401684      0.70616938      1.10436437
C       1.36341609     -0.80521394     -0.06729218
C       2.12794827     -0.90233790     -1.39716791
O       2.33291446      0.40497019     -1.93069728
H      -1.73971713      0.06353468     -1.11925986
H      -1.26806744     -1.50843756     -0.42555996
H      -0.54913882     -0.90557616     -1.93071743
H      -0.56561777     -0.50850147      1.74609250
H       0.52152402      0.89241623      1.71585328
H      -1.50287167      1.89390067      2.21501642
H      -1.40779018      2.15322086      0.46158135
H      -3.42745621      1.38777765      1.08522674
H       2.05525909     -0.34841844      0.65235753
H       1.11382663     -1.80522857      0.30737248
H       1.58498969     -1.49622502     -2.13786985
H       3.10640624     -1.36714773     -1.24264055
H       1.52643266      0.90045339     -1.67810989
