14
CC(C(=O)O)C(=O)O
C      -0.56526121      1.41316295      0.34336890
C      -0.05427282      0.14436211     -0.33244092
C      -1.05736303     -0.96605419     -0.19000501
O      -1.96362805     -1.04271823      0.62344576
O      -0.89117753     -1.93778693     -1.11137428
C       1.27929171     -0.24500585      0.23503813
O       1.54180552     -1.22037480      0.91786356
O       2.25537667      0.63068349     -0.08878022
H      -1.55743746      1.68657256     -0.03190701
H       0.10891692      2.25677944      0.16054906
H      -0.64217415      1.28279267      1.42906585
H       0.06324023      0.33891410     -1.40579576
H      -1.57641349     -2.60213908     -0.88425876
H       3.05909669      0.26081174      0.33523071
