10
O=C1OCCO1
O       2.66269438     -0.07737571     -0.39857371
C       1.45785921     -0.04236401     -0.21822403
O       0.62784460      0.91921380     -0.72268696
C      -0.62440004      0.74278485     -0.08772760
C      -0.61254558     -0.70684025      0.27288363
O       0.75854201     -0.95950069      0.51516177
H      -0.66458394      1.39313880      0.79262948
H      -1.44583774      1.00069954     -0.76154053
H      -0.94541056     -1.34635378     -0.55163255
H      -1.21416233     -0.92340256      1.15971050
