39
C[C@@H](c1ncncc1F)[C@](O)(Cn1cncn1)c1ccc(F)cc1F
C      -0.06100164     -2.20476076     -1.29761922
C      -0.57680610     -0.93163441     -0.60345951
C      -1.96521857     -1.23997115     -0.05331241
N      -2.04169456     -1.85936984      1.15749373
C      -3.28318830     -2.14429137      1.60137078
N      -4.43284514     -1.87811057      0.96340627
C      -4.30576703     -1.27263376     -0.23695474
C      -3.09422690     -0.93981174     -0.79492411
F      -3.02539234     -0.37522844     -2.00626389
C       0.42325450     -0.40255413      0.49629674
O       0.63316271     -1.48213804      1.44991743
C      -0.11629434      0.79130546      1.33138816
N      -0.47505006      1.97532041      0.59252070
C       0.22375878      3.13742712      0.48758867
N      -0.46624024      4.00046309     -0.22125710
C      -1.60851765      3.31234023     -0.51478361
N      -1.66898713      2.07298689     -0.01941776
C       1.82469340     -0.04507399     -0.04120315
C       2.98485391     -0.39129683      0.68463149
C       4.25971687     -0.05465320      0.22034235
C       4.39406716      0.64141319     -0.97207158
F       5.61542630      0.96637380     -1.41385395
C       3.27966151      1.01015005     -1.70577612
C       2.01386655      0.66863360     -1.23682637
F       0.96309479      1.06720024     -1.96296397
H      -0.75688559     -2.53100428     -2.07959420
H       0.90735859     -2.03732835     -1.77825981
H       0.04953528     -3.03778151     -0.59444523
H      -0.70315393     -0.16571619     -1.37367922
H      -3.36113353     -2.63609557      2.56571310
H      -5.23196891     -1.06115274     -0.76069106
H      -0.25331745     -1.85859548      1.64301303
H       0.62835054      1.08943682      2.08263276
H      -0.99576895      0.50034464      1.91871247
H       1.19818550      3.29762557      0.92781932
H      -2.41903099      3.72789764     -1.09981310
H       2.90833811     -0.93836461      1.62393080
H       5.14525672     -0.33416441      0.78346662
H       3.38990811      1.56281260     -2.63183469
