7
O=S(=O)([O-])[O-].O=[V+2]
O      -0.92167007     -0.02918196      1.21643920
S      -0.04004896     -0.02004186      0.00294677
O      -0.88961001     -0.41920763     -1.16729791
O       1.26837373     -1.06170982      0.17624368
O       0.58295531      1.53014127     -0.22833174
O       0.63922283      0.00000000      0.00000000
V      -0.63922283      0.00000000      0.00000000
