26
O=C(O)c1cc(-c2ccc(F)cc2F)ccc1O
O      -4.56430618     -0.74749223     -0.89108215
C      -3.36349678     -0.94274384     -0.98320299
O      -2.86378126     -1.94028299     -1.73006097
C      -2.33336955     -0.12417890     -0.30722433
C      -0.96668293     -0.41789110     -0.44218407
C       0.01400507      0.36101217      0.19945968
C       1.44817074      0.05396901      0.05090776
C       2.36318564      1.05422929     -0.32886104
C       3.72395076      0.76646582     -0.47110750
C       4.18235127     -0.52387174     -0.23491254
F       5.48634455     -0.79528231     -0.37231204
C       3.30958242     -1.53296794      0.13932209
C       1.95626863     -1.23808811      0.27809001
F       1.13230962     -2.23029973      0.65006357
C      -0.41500906      1.44631634      0.98332533
C      -1.77267125      1.74565217      1.12317507
C      -2.72686802      0.96380306      0.48059256
O      -4.03283981      1.32867271      0.67262148
H      -3.64955218     -2.39072616     -2.10479731
H      -0.65733557     -1.26263172     -1.05594853
H       2.01787804      2.06714884     -0.52950904
H       4.42595333      1.54031690     -0.76713075
H       3.67411055     -2.53657185      0.32343130
H       0.30962759      2.06634087      1.50856319
H      -2.08537739      2.58641855      1.73731292
H      -4.61244823      0.70268290      0.18625273
