6
FC(F)=C(F)F
F      -1.22144735     -0.51037717      1.19060507
C      -0.56292759     -0.35622520      0.02226489
F      -1.04887648     -0.92630219     -1.10080933
C       0.56292750      0.35622540     -0.02226494
F       1.04887716      0.92630107      1.10080957
F       1.22144676      0.51037809     -1.19060526
