27
Cc1ccc(C(C)(C)C)cc1
C       4.10729944      0.47789859     -0.63440407
C       2.63124355      0.27696385     -0.46777060
C       2.01698174      0.50482838      0.76409575
C       0.63442823      0.34678489      0.90786778
C      -0.18187384     -0.03351788     -0.17449845
C      -1.69879634     -0.19795678      0.02188764
C      -1.97019253     -1.27821099      1.09128492
C      -2.45205787     -0.62430751     -1.25851489
C      -2.31014186      1.14151443      0.48656491
C       0.45138673     -0.24334708     -1.40979011
C       1.83535584     -0.08573775     -1.55593726
H       4.31452031      1.51464614     -0.91682663
H       4.64002281      0.25098511      0.29509925
H       4.50721535     -0.18645350     -1.40768067
H       2.60808036      0.80692714      1.62557028
H       0.20098569      0.53012880      1.88862791
H      -1.56381525     -1.00345308      2.07081525
H      -3.04616148     -1.44026426      1.22529839
H      -1.52138635     -2.23711211      0.80602382
H      -3.52677111     -0.73063393     -1.06774101
H      -2.33940422      0.11648839     -2.05870060
H      -2.09467482     -1.59021549     -1.63412524
H      -3.39748144      1.06111860      0.60120112
H      -1.90965780      1.46686355      1.45295535
H      -2.10918373      1.93935390     -0.23825111
H      -0.11117402     -0.53216292     -2.29307435
H       2.28525264     -0.25112849     -2.53248184
