45
O=C1CCCCCCCCCCCC(=O)OCCO1
O      -2.34495738      0.78723460      1.89258829
C      -2.06672590      0.89426457      0.70427363
C      -2.78566218      0.13395852     -0.39484393
C      -3.51970096     -1.11898708      0.10806384
C      -2.61386406     -2.17864509      0.75229288
C      -1.69546948     -2.89200107     -0.24549213
C      -0.51947546     -3.61882440      0.42550709
C       0.51057352     -2.69604145      1.09839312
C       1.24134290     -1.78413695      0.10717609
C       2.06101518     -0.70970992      0.82502465
C       2.71710047      0.23405407     -0.18714953
C       3.46898363      1.38431463      0.49522140
C       3.21422657      2.73132294     -0.18316168
C       1.82534220      3.24189451      0.10651741
O       1.44621553      3.57460640      1.22341635
O       1.07911387      3.26840877     -1.03182465
C      -0.30152980      3.66475092     -0.88928607
C      -1.18810610      2.42490615     -0.94397182
O      -1.04627702      1.68742686      0.28713380
H      -2.05504831     -0.15710872     -1.15687398
H      -3.51702021      0.80872513     -0.85228916
H      -4.27459225     -0.81888096      0.84852918
H      -4.06505391     -1.57013584     -0.73113244
H      -3.25180700     -2.93450795      1.22847986
H      -2.04309910     -1.72127244      1.56240583
H      -2.29424560     -3.63114541     -0.79658806
H      -1.31916268     -2.20255743     -1.00451105
H      -0.00615124     -4.22724198     -0.32831280
H      -0.91065259     -4.31643925      1.17756850
H       0.02627163     -2.09709213      1.87694433
H       1.25282861     -3.32109654      1.61554874
H       0.52984850     -1.28243406     -0.55674971
H       1.89787303     -2.39199773     -0.53017123
H       1.39179900     -0.12357591      1.47151040
H       2.82057538     -1.17665145      1.46720094
H       1.94579790      0.61813111     -0.86462852
H       3.41999835     -0.33334673     -0.80985527
H       3.21675429      1.45021448      1.56236563
H       4.54576455      1.17253157      0.44151676
H       3.39597681      2.67014671     -1.26007354
H       3.91455247      3.48585609      0.19975317
H      -0.46769573      4.23918272      0.03377345
H      -0.52272820      4.32151371     -1.74111897
H      -0.88082186      1.77595704     -1.77684679
H      -2.23210741      2.73442900     -1.06895719
