15
Nc1ccccc1O
N       1.94366364     -1.04806759      0.12786411
C       0.64770020     -0.48054485      0.14633178
C      -0.47727463     -1.21860827     -0.21847621
C      -1.71969103     -0.58650660     -0.33953926
C      -1.83451257      0.79145887     -0.13517165
C      -0.70661058      1.54595667      0.18230206
C       0.51790927      0.90513260      0.30482806
O       1.63219226      1.64048848      0.60552434
H       1.90225858     -2.05093925      0.30214005
H       2.35537324     -0.90191331     -0.79537838
H      -0.40448327     -2.28492640     -0.41019696
H      -2.59914663     -1.16775800     -0.60573982
H      -2.80128041      1.27814874     -0.23449954
H      -0.77852455      2.61879675      0.32890219
H       2.32242647      0.95928216      0.74110922
