11
Clc1cc(Cl)c(Cl)nc1Cl
Cl      2.53076940      1.63314330     -0.08778397
C       1.15054700      0.60478659     -0.03645448
C      -0.11671420      1.18721446     -0.02766527
C      -1.24640837      0.37031314      0.01373143
Cl     -2.80060475      1.11162109      0.02384078
C      -1.05548450     -1.00891195      0.04484433
Cl     -2.35351851     -2.13618537      0.09715034
N       0.15792973     -1.60645972      0.03742734
C       1.23185832     -0.78516094     -0.00304630
Cl      2.72469621     -1.63942734     -0.00917124
H      -0.22307034      2.26906674     -0.05287296
