11
OCC1CO1
O      -2.03857435      0.54242909      0.08083159
C      -1.01457717     -0.44298672      0.07238802
C       0.27517973      0.19022650      0.46260496
C       1.56232107     -0.12382085     -0.25132718
O       0.81884863      1.07232758     -0.53082878
H      -1.70807610      1.27559947     -0.47046187
H      -0.97257871     -0.88776308     -0.92721577
H      -1.28498033     -1.22768600      0.78483600
H       0.30037981      0.51455389      1.49389322
H       1.57074207     -0.89672438     -1.00948327
H       2.49131535     -0.01615551      0.29476308
