19
Cc1c[nH]c2ccccc12
C       2.65040242      0.72444295     -0.05618794
C       1.46514040     -0.16926281     -0.00260189
C       1.47504131     -1.54833590      0.06621042
N       0.17876279     -1.98694710      0.09790090
C      -0.68682745     -0.91962917      0.05111916
C      -2.08667679     -0.89115463      0.06026072
C      -2.70950680      0.35908430      0.00251062
C      -1.96031523      1.53142795     -0.06170302
C      -0.56132764      1.48424223     -0.06990406
C       0.09206319      0.23599308     -0.01248335
H       2.63964796      1.31890848     -0.97534041
H       3.58274139      0.15094353     -0.03457659
H       2.65303918      1.40754947      0.79920946
H       2.29492849     -2.25353240      0.09524965
H      -0.10814672     -2.95419947      0.14838148
H      -2.67303585     -1.80253022      0.11020973
H      -3.79554690      0.41585802      0.00787102
H      -2.46434588      2.49353380     -0.10595701
H       0.01396215      2.40360788     -0.12016888
