26
c1cc2ccc3cccc4ccc(c1)c2c34
C       3.48151570     -0.47003162     -0.09069623
C       2.63012622     -1.57429851     -0.07245055
C       1.23838072     -1.40316187     -0.03624788
C       0.36715258     -2.50074366     -0.01747113
C      -1.01713828     -2.31385228      0.01859059
C      -1.56612505     -1.02452935      0.03680901
C      -2.95342491     -0.82047436      0.07300242
C      -3.48151526      0.47003138      0.09069661
C      -2.63012561      1.57429936      0.07245105
C      -1.23838026      1.40316119      0.03624741
C      -0.36715211      2.50074260      0.01747084
C       1.01713717      2.31385180     -0.01858934
C       1.56612493      1.02452920     -0.03680924
C       2.95342526      0.82047551     -0.07300321
C       0.70190412     -0.09476361     -0.01828442
C      -0.70190386      0.09476277      0.01828357
H       4.55829005     -0.61540658     -0.11874385
H       3.06210523     -2.57239792     -0.08673291
H       0.75951317     -3.51513096     -0.03079608
H      -1.66444282     -3.18787378      0.03235218
H      -3.63461041     -1.66828435      0.08771826
H      -4.55829262      0.61538420      0.11874492
H      -3.06209354      2.57240360      0.08673262
H      -0.75950326      3.51513335      0.03079439
H       1.66443208      3.18788028     -0.03234958
H       3.63460078      1.66829362     -0.08771944
