37
CC(COC(=O)c1ccccc1)OC(=O)c1ccccc1
C       0.27241463      3.13563675      1.21538605
C      -0.47199057      2.69411183     -0.04111800
C       0.48748877      2.43148779     -1.21431734
O       1.55706193      1.54537209     -0.82769398
C       1.35403139      0.22397758     -1.05224762
O       0.37638900     -0.27589425     -1.58467989
C       2.50197384     -0.57416740     -0.54241061
C       2.44763179     -1.96876181     -0.67581582
C       3.49712897     -2.76302971     -0.20979849
C       4.60575540     -2.16959928      0.39210562
C       4.66805245     -0.78318065      0.52938054
C       3.61994475      0.01512900      0.06424671
O      -1.19564769      1.49662846      0.30425151
C      -2.25194033      1.20112092     -0.49585529
O      -2.66676146      1.89760986     -1.40962245
C      -2.87343251     -0.08829695     -0.09003755
C      -4.07146443     -0.46995975     -0.70927883
C      -4.69390408     -1.67002491     -0.35967478
C      -4.12210140     -2.49581872      0.60739259
C      -2.92733188     -2.12608719      1.22453581
C      -2.30199802     -0.92591078      0.87779839
H       0.87533286      4.02900511      1.02704299
H       0.92343002      2.34150841      1.59684441
H      -0.44094581      3.36058115      2.01598262
H      -1.17847716      3.48783586     -0.31479389
H      -0.03843015      2.04249548     -2.09321582
H       0.96048892      3.37257223     -1.51567877
H       1.58631564     -2.44170678     -1.14457779
H       3.44886916     -3.84385687     -0.31774944
H       5.42316366     -2.78872170      0.75414050
H       5.53417321     -0.32270907      0.99864812
H       3.68984520      1.09348282      0.18148100
H      -4.52220017      0.16623469     -1.46850962
H      -5.62231190     -1.96069101     -0.84480573
H      -4.60586049     -3.43146520      0.87692228
H      -2.47901598     -2.77435757      1.97324560
H      -1.36567756     -0.66055043      1.36162076
