11
ClCC(Br)CBr
Cl      1.80518859     -0.98669641     -1.26503941
C       1.23719485      0.36566645     -0.25285997
C      -0.28383475      0.47229288     -0.26186181
Br     -0.80709041      2.09837022      0.71742004
C      -1.06230724     -0.72754307      0.25962632
Br     -0.55942706     -1.26935955      2.06337605
H       1.64715361      0.22819725      0.75201657
H       1.69122665      1.27419297     -0.66303579
H      -0.62157500      0.68190252     -1.28404446
H      -2.13754824     -0.52613396      0.30114874
H      -0.90898101     -1.61088929     -0.36674627
