11
C1COCO1
C      -0.88262943      0.60604355      0.13752301
C      -0.64185775     -0.80586067     -0.32224742
O       0.73315082     -0.79668984     -0.70150726
C       1.33215474      0.17460778      0.16141919
O       0.32071977      0.93482238      0.82920635
H      -1.74905576      0.70733546      0.79560921
H      -0.98650811      1.29329988     -0.70919426
H      -1.27448521     -1.10363598     -1.16197611
H      -0.76358441     -1.52268750      0.49713284
H       1.96029736      0.84411046     -0.43380246
H       1.95179797     -0.33134550      0.90783690
