36
O=c1c2ccccc2[nH]c2cc3c(=O)c4ccccc4[nH]c3cc12
O       2.47420180      1.49644413      2.24650268
C       2.47255393      0.78310171      1.24819544
C       3.74488478      0.30436481      0.65187921
C       4.96980582      0.65114682      1.23121996
C       6.15637491      0.19965838      0.65529607
C       6.11635481     -0.58785837     -0.49588996
C       4.89020864     -0.93246117     -1.07303925
C       3.69160808     -0.50502344     -0.49431635
N       2.45791587     -0.80303098     -1.09371350
C       1.22816332     -0.43506389     -0.52770620
C       0.02542194     -0.80066325     -1.13312562
C      -1.19098222     -0.37943339     -0.57928657
C      -2.47255621     -0.78310758     -1.21103069
O      -2.47420642     -1.49648994     -2.20930905
C      -3.74488723     -0.30437559     -0.61471267
C      -4.96980995     -0.65120285     -1.19402297
C      -6.15637735     -0.19970017     -0.61810812
C      -6.11635323      0.58786453      0.53304657
C      -4.89020591      0.93249136      1.11017971
C      -3.69160799      0.50504081      0.53146293
N      -2.45791455      0.80307492      1.13083864
C      -1.22816227      0.43509517      0.56484089
C      -0.02542108      0.80070303      1.17025356
C       1.19098251      0.37946245      0.61642290
H       4.99857784      1.27226084      2.12353386
H       7.11174425      0.46759797      1.10011673
H       7.04372722     -0.92997303     -0.94966153
H       4.88263152     -1.53425093     -1.97792933
H       2.44657594     -1.55400415     -1.77344126
H       0.02150835     -1.41208500     -2.03228095
H      -4.99858267     -1.27235791     -2.08630878
H      -7.11174810     -0.46766021     -1.06291404
H      -7.04372377      0.92999823      0.98680683
H      -4.88262236      1.53431139      2.01505143
H      -2.44657344      1.55399075      1.81063013
H      -0.02150681      1.41213452      2.06940183
