19
C=Cc1ccc(C)cc1
C       3.51050485      0.30967329     -0.04237416
C       2.52407029     -0.45732873     -0.52452747
C       1.09421500     -0.23924810     -0.26614292
C       0.16690014     -0.59094991     -1.25439903
C      -1.20522939     -0.42621744     -1.03935435
C      -1.67608933      0.09322628      0.17059839
C      -3.14847974      0.23833086      0.41533867
C      -0.75473977      0.41693089      1.17173513
C       0.61737525      0.25228043      0.95481687
H       4.54509713      0.08943699     -0.28640848
H       3.32396831      1.17556226      0.58404859
H       2.77195404     -1.29566173     -1.17168928
H       0.50400554     -0.99204558     -2.20750069
H      -1.90259833     -0.70721637     -1.82523431
H      -3.54852210     -0.68348433      0.84863414
H      -3.35057782      1.06854574      1.10026949
H      -3.68043809      0.45104950     -0.51793424
H      -1.09726431      0.79651020      2.13171088
H       1.30584834      0.50060578      1.75841278
