26
N=C(N)N1CCc2ccccc2C1
N      -3.32188854      0.98271311      0.90014219
C      -2.78658138      0.08914209      0.14519408
N      -3.54005582     -0.70522994     -0.64642482
N      -1.43865680     -0.10821452      0.02698261
C      -0.88140399     -1.46850479      0.04862509
C       0.40946647     -1.50977745     -0.76850724
C       1.37525948     -0.43640103     -0.34066014
C       2.73672008     -0.54928862     -0.65461438
C       3.63076300      0.45458017     -0.28465248
C       3.17166242      1.58054125      0.39376520
C       1.81609747      1.70669434      0.69856697
C       0.90215266      0.70788926      0.32617585
C      -0.56135405      0.87293550      0.69361756
H      -4.33763665      0.92661408      0.82777394
H      -3.08027807     -0.88949060     -1.53045056
H      -4.48313009     -0.37419739     -0.79740202
H      -0.69171497     -1.76808868      1.08789601
H      -1.57446927     -2.20684429     -0.36982134
H       0.18039815     -1.36096058     -1.83102636
H       0.87008883     -2.49818012     -0.65632227
H       3.10684578     -1.42082798     -1.18945574
H       4.68573956      0.35923547     -0.52753854
H       3.86840212      2.36271768      0.68350633
H       1.47097415      2.59275849      1.22773232
H      -0.86874109      1.88544896      0.40252278
H      -0.65865946      0.77473561      1.78239461
