46
CC(C)OC(=O)C(C)(C)Oc1ccc(C(=O)c2ccc(Cl)cc2)cc1
C      -5.49650677      0.85792947     -1.69961644
C      -4.64400529      1.21141831     -0.48722481
C      -5.50633792      1.78624169      0.63052022
O      -4.02365581     -0.00773868     -0.03666420
C      -2.86114957      0.12765789      0.66785339
O      -2.33862440      1.20351871      0.93216918
C      -2.32580811     -1.25289508      1.11667396
C      -2.55118619     -2.36323068      0.07688417
C      -3.14780146     -1.61152644      2.37106303
O      -0.97065944     -1.27050294      1.58123946
C       0.08770848     -0.95680994      0.78198579
C       1.33321955     -1.20455685      1.37133964
C       2.52229108     -0.93367405      0.68882011
C       2.47098200     -0.39134955     -0.59664379
C       3.70179766     -0.09222819     -1.36879331
O       3.71095086     -0.29018247     -2.58091845
C       4.92215603      0.44208475     -0.71192325
C       6.17156177      0.08451528     -1.23535238
C       7.34274550      0.57793097     -0.65514386
C       7.26309749      1.43804731      0.43890381
Cl      8.70423976      2.04633306      1.15435845
C       6.02266824      1.81527829      0.95348001
C       4.84891975      1.32295698      0.37501108
C       1.23114445     -0.15650475     -1.19803271
C       0.04441648     -0.43003370     -0.50678310
H      -4.87296727      0.42480495     -2.48933533
H      -6.00390418      1.74053055     -2.10071237
H      -6.24968941      0.10384938     -1.44532069
H      -3.88344358      1.93789804     -0.79799837
H      -6.03119783      2.68841519      0.30175716
H      -4.89590374      2.04189490      1.50265775
H      -6.24600703      1.05295017      0.97057549
H      -3.61676878     -2.56640951     -0.07805984
H      -2.13645952     -2.10000445     -0.90036053
H      -2.06693124     -3.29547775      0.38923268
H      -4.22177858     -1.66149811      2.16042276
H      -2.99540791     -0.86538333      3.16057937
H      -2.83009300     -2.57507680      2.78660229
H       1.37607296     -1.62207615      2.37540350
H       3.46948379     -1.16502968      1.16807153
H       6.23390914     -0.57790967     -2.09710337
H       8.30834452      0.29259468     -1.06459883
H       5.96271668      2.49846649      1.79715692
H       3.89036279      1.65040761      0.77059716
H       1.18369504      0.24902425     -2.20726484
H      -0.88619701     -0.20465017     -1.01329069
