26
CCc1cccc(CC)c1N
C       3.22279445     -0.58395387      0.24427199
C       2.40346034      0.48231489      0.95663701
C       1.08441297      0.74233434      0.26101391
C       1.03990545      1.77956463     -0.68798431
C      -0.14284908      2.09272589     -1.34717205
C      -1.30218103      1.38542971     -1.05189558
C      -1.29076381      0.34263084     -0.10803892
C      -2.60055340     -0.35977911      0.17911769
C      -2.78688425     -1.59528320     -0.68950874
C      -0.07412193     -0.02974393      0.50925391
N      -0.06436363     -1.01608472      1.51470854
H       3.45016212     -0.28594354     -0.78494607
H       2.69236090     -1.54089686      0.20534901
H       4.17095016     -0.74360627      0.76741403
H       2.98468042      1.41223677      1.00198090
H       2.23598978      0.19984147      2.00225618
H       1.93448423      2.35775670     -0.90903805
H      -0.16542395      2.89893166     -2.07504593
H      -2.22720603      1.65741221     -1.55567761
H      -2.66818367     -0.62545253      1.24024949
H      -3.43459820      0.33197739      0.00456014
H      -2.78298929     -1.33487806     -1.75344963
H      -1.99181842     -2.32916731     -0.52247778
H      -3.74392699     -2.07554900     -0.46239727
H      -0.78639186     -1.71851339      1.40381867
H       0.84305472     -1.44430472      1.65700050
