35
CCOc1ccc2c(c1)C(C)=CC(C)(C)N2
C       5.77414784     -0.01531092     -0.36287656
C       4.44327498      0.71337156     -0.41518415
O       3.40891804     -0.24417657     -0.19705243
C       2.12055692      0.21590299     -0.21203518
C       1.72415790      1.53351436     -0.41413458
C       0.36541687      1.86155179     -0.40401166
C      -0.61804390      0.87982168     -0.22044551
C      -0.22077314     -0.44898381      0.02491273
C       1.14822674     -0.76385081      0.01229548
C      -1.26036743     -1.46450519      0.29743068
C      -0.87739439     -2.84705378      0.73281405
C      -2.54479569     -1.10140337      0.13136068
C      -3.00748405      0.26440042     -0.31561826
C      -3.42502640      0.21150753     -1.79236524
C      -4.20339513      0.70540260      0.54224073
N      -1.95958877      1.27477434     -0.14255945
H       5.90704448     -0.50620819      0.60694130
H       5.81419218     -0.80012770     -1.12553377
H       6.60465097      0.67748725     -0.52492308
H       4.32932899      1.17928442     -1.40081221
H       4.42410706      1.47930222      0.36868934
H       2.43990518      2.33235963     -0.57212225
H       0.07626804      2.90048254     -0.53874036
H       1.48503506     -1.78238759      0.18311573
H      -0.27553117     -2.81428982      1.64724570
H      -0.30783854     -3.35873687     -0.05008032
H      -1.75692695     -3.46397843      0.94843126
H      -3.32722951     -1.83609607      0.30580720
H      -2.58587908     -0.07524161     -2.43756896
H      -3.77840875      1.18976703     -2.13921623
H      -4.23262130     -0.51180829     -1.95477000
H      -3.93352223      0.75949744      1.60408520
H      -5.04653710      0.01139678      0.44605218
H      -4.55637847      1.70091581      0.24740997
H      -2.14748924      2.14341860     -0.63127441
