29
O=P1(N(CCCl)CCCl)NCCCO1
O       0.67420286     -2.16034011      0.14206777
P       0.48788601     -0.67854982      0.05141743
N      -1.06349320     -0.12301989      0.05381715
C      -2.10165057     -1.11198971     -0.29792299
C      -2.37079789     -2.10746262      0.83672231
Cl     -3.75040710     -3.15934077      0.41711864
C      -1.32074009      1.16894009     -0.60711201
C      -2.43558501      1.97387038      0.06845538
Cl     -2.60358376      3.56952751     -0.70766299
N       1.23733348      0.17801529      1.23172430
C       2.69351607      0.12648775      1.17757104
C       3.20507876      0.61031153     -0.18042510
C       2.59384974     -0.18981041     -1.32781211
O       1.17703951     -0.09418667     -1.28795718
H      -3.05019833     -0.61277315     -0.52729845
H      -1.80958559     -1.64263855     -1.21296556
H      -1.52073101     -2.76019565      1.04024882
H      -2.63448971     -1.58258748      1.76027729
H      -0.41209140      1.78197207     -0.55759182
H      -1.52885524      1.01930692     -1.67421818
H      -2.20780006      2.14621429      1.12507284
H      -3.40732431      1.47883855     -0.00047106
H       0.94294223      1.14598181      1.22139399
H       3.10897169      0.75101650      1.97545472
H       3.03245024     -0.89879418      1.36453690
H       2.94385880      1.66928917     -0.30080258
H       4.29712776      0.53309311     -0.21452879
H       2.89003962     -1.24333906     -1.28177308
H       2.93303649      0.21216308     -2.28733666
