60
Cc1ccc(-c2nc3ccc(C)cn3c2CC(=O)N(C)C)cc1.O=C(O)[C@@H](O)[C@H](O)C(=O)O
C       4.69946885     -3.60002064     -1.33202361
C       3.77439992     -2.45407243     -1.04807544
C       4.23753685     -1.32257074     -0.36609344
C       3.38703393     -0.23786446     -0.13485834
C       2.06182268     -0.26920095     -0.58020721
C       1.19333068      0.86348586     -0.32545257
N       1.58052655      2.15597628     -0.57913284
C       0.54466357      2.89782386     -0.25610223
C       0.34863677      4.30486104     -0.32853557
C      -0.82228584      4.84129921      0.06472230
C      -1.91532012      4.01263553      0.56776297
C      -3.18717036      4.69353434      0.96375408
C      -1.72508341      2.68084933      0.64097799
N      -0.50670227      2.12908247      0.23639045
C      -0.06990584      0.81604444      0.24291813
C      -0.86351592     -0.32278296      0.79841498
C      -1.91639335     -0.83081249     -0.18702063
O      -2.24191089     -0.18173994     -1.18266312
N      -2.51738268     -2.05536712      0.11420428
C      -3.39841577     -2.65115779     -0.87796455
C      -2.07648248     -2.93346467      1.18726093
C       1.60739642     -1.38544528     -1.29202387
C       2.45810353     -2.47010573     -1.52438010
O       1.54182880     -1.83913700     -0.89058389
C       1.62932808     -0.73293924     -0.38869949
O       2.80369964     -0.05771954     -0.40833553
C       0.54865937      0.04269657      0.35679947
O       0.78688546      1.46327892      0.31419687
C      -0.82476102     -0.23499235     -0.26167187
O      -1.26655118      0.88913223     -1.06112242
C      -1.85097101     -0.45832147      0.84244922
O      -1.69007277     -1.16861089      1.82222718
O      -3.00225714      0.21985363      0.59599243
H       4.14621650     -4.54332260     -1.38986523
H       5.21899444     -3.43558861     -2.28103852
H       5.44267805     -3.70830437     -0.53505585
H       5.26602820     -1.27234018     -0.01605379
H       3.76200237      0.63862107      0.38972952
H       1.15730980      4.91839865     -0.70785182
H      -0.97441695      5.91524588      0.00569909
H      -3.61964285      5.22762825      0.11114320
H      -3.93527503      3.97832182      1.32211520
H      -3.00378392      5.41358450      1.76820250
H      -2.48894200      1.99916550      0.99034653
H      -1.36983241     -0.02011166      1.72180701
H      -0.17568800     -1.13646540      1.05028371
H      -3.78128003     -1.91093357     -1.58524961
H      -2.83744076     -3.41124704     -1.42998307
H      -4.24745175     -3.11788779     -0.36994037
H      -1.25132469     -3.54866795      0.81745432
H      -2.90472060     -3.57592407      1.50006988
H      -1.74277121     -2.36248482      2.05613442
H       0.59788942     -1.40725539     -1.69590316
H       2.08910060     -3.32141941     -2.09174616
H       3.41506226     -0.65481347     -0.89356389
H       0.61813184     -0.27328792      1.40325268
H       1.75187571      1.56493408      0.45524576
H      -0.85675565     -1.12461948     -0.89831318
H      -0.72225198      1.64590338     -0.73943285
H      -2.88185039      0.71864256     -0.24844047
