24
C/C=C/c1ccc(O)c(OC)c1
C      -3.87073611      1.37095661     -0.47881041
C      -2.46042562      0.95199494     -0.21610634
C      -1.99285812     -0.28105621     -0.46686101
C      -0.61153088     -0.70810156     -0.20139545
C      -0.39051323     -2.00631033      0.28072375
C       0.90561851     -2.46187102      0.52006399
C       1.97792334     -1.61894118      0.26461203
O       3.24072642     -2.08802141      0.50616417
C       1.79066442     -0.32423011     -0.23133356
O       2.94534311      0.38575471     -0.44316805
C       2.79574801      1.70969023     -0.94291211
C       0.48969322      0.12469807     -0.46834001
H      -4.47175564      0.56108090     -0.90421631
H      -4.34338585      1.69316718      0.45402970
H      -3.88476656      2.21086873     -1.18006435
H      -1.81434239      1.71135343      0.21783151
H      -2.65421057     -1.04476938     -0.87077652
H      -1.22772474     -2.67052819      0.48304447
H       1.07792482     -3.46379069      0.90088217
H       3.83249245     -1.35051774      0.26056530
H       3.79579692      2.14099120     -1.04917233
H       2.32763605      1.70692736     -1.93278300
H       2.23600483      2.33615139     -0.24055320
H       0.30667762      1.11450306     -0.87191012
