35
COc1nc(NC(C)C)nc(NC(C)C)n1
C      -1.75104748      3.81013150     -0.17814946
O      -0.48230768      3.42927986     -0.69312088
C      -0.18459962      2.09883905     -0.47799714
N      -1.07021233      1.31576586      0.12464883
C      -0.67870972      0.06195395      0.28130997
N      -1.50617543     -0.85918855      0.90521751
C      -2.94406239     -0.69714728      0.73579941
C      -3.64471296     -1.57836364      1.77077274
C      -3.37595023     -1.10073842     -0.67404588
N       0.49278139     -0.40938506     -0.12059714
C       1.30175501      0.45790309     -0.71719549
N       2.54398224      0.05340026     -1.18218660
C       3.23674735     -0.98436472     -0.43007162
C       4.38109905     -1.51230125     -1.29642883
C       3.78773279     -0.42982607      0.88375189
N       1.00872283      1.73018445     -0.92001001
H      -1.79673481      3.67689205      0.90845097
H      -1.88979693      4.87539819     -0.38705260
H      -2.56215202      3.26669553     -0.67549306
H      -1.13723119     -1.78007626      0.69192155
H      -3.24877123      0.33886732      0.92963964
H      -4.73265304     -1.47867787      1.69633842
H      -3.38880763     -2.63542493      1.63574711
H      -3.34787017     -1.29408212      2.78645456
H      -4.46290943     -1.02478306     -0.78387385
H      -3.08232373     -2.13178497     -0.90120644
H      -2.91985633     -0.45368396     -1.43074412
H       3.07842908      0.89543635     -1.36972901
H       2.57018053     -1.83000301     -0.21979611
H       3.99792417     -1.91873270     -2.23904986
H       5.09442397     -0.71828787     -1.54504865
H       4.92532351     -2.31043765     -0.78077899
H       4.45659180      0.42032970      0.70840323
H       2.98138734     -0.08513722      1.53971642
H       4.34980328     -1.19865055      1.42440343
