16
O=C(O)/C=C/c1cnc[nH]1
O       3.27622328      0.19767371     -2.09739568
C       2.63231101     -0.11646619     -1.11274319
O       3.20312421     -0.73872138     -0.06985696
C       1.19510597      0.13745295     -0.94634935
C       0.50505376     -0.21744772      0.14767809
C      -0.87898369      0.05058262      0.25792455
C      -1.85582898      0.64169950     -0.51914904
N      -3.07316850      0.62548985      0.11370399
C      -2.85467416      0.03417919      1.26395322
N      -1.54535565     -0.33160160      1.39833598
H       4.14070503     -0.82756133     -0.34176708
H       0.73643565      0.64019273     -1.79016563
H       1.01260343     -0.72051953      0.96817426
H      -1.75176775      1.08032973     -1.50321486
H      -3.59378161     -0.15557876      2.03085209
H      -1.14800200     -0.80036353      2.20001963
