22
ClC1=C(Cl)C2(Cl)C3C(Cl)C=CC3C1(Cl)C2(Cl)Cl
Cl     -1.74566752     -0.58547804      2.80448797
C      -1.35963225     -0.08821430      1.23300651
C      -1.06551012      1.14636712      0.80886288
Cl     -1.00652373      2.57136973      1.72135316
C      -0.72707559      1.05100281     -0.66752775
Cl     -0.83392747      2.54484682     -1.58337863
C       0.64579505      0.32435015     -0.83732943
C       1.83031078      0.84814145     -0.01189866
Cl      3.27557990      1.05252668     -1.02997647
C       2.09083863     -0.25191870      0.96928914
C       1.28661155     -1.31030974      0.81564625
C       0.31541821     -1.11762181     -0.30655508
C      -1.20998969     -1.02000934      0.04530960
Cl     -2.00316412     -2.58038282      0.17094916
C      -1.73674746     -0.07467149     -1.08041652
Cl     -3.47918930      0.38116946     -0.93291197
Cl     -1.52879890     -0.70867624     -2.75173850
H       0.90482490      0.27106870     -1.90328909
H       1.63697699      1.80358016      0.47972106
H       2.86813606     -0.18790322      1.72172090
H       1.33278633     -2.20696122      1.42310814
H       0.50894776     -1.86227616     -1.08843270
