22
NCCc1ccc(O)c(O)c1
N      -3.72524217     -0.65988241     -0.38161022
C      -2.37604157     -0.10661830     -0.48703441
C      -1.43538001     -0.74490415      0.54036204
C      -0.03314686     -0.19422166      0.42964368
C       0.34094697      0.94487823      1.16346947
C       1.62931597      1.47142690      1.05041182
C       2.53843979      0.85967334      0.20163107
O       3.79818907      1.37473712      0.08993941
C       2.18039868     -0.26670424     -0.53386639
O       3.12703440     -0.81845309     -1.35291796
C       0.89948316     -0.79864711     -0.42904326
H      -4.11268747     -0.44439729      0.53665189
H      -4.33048446     -0.19519960     -1.05822147
H      -2.00208529     -0.28288542     -1.50204883
H      -2.42016760      0.97906183     -0.34202607
H      -1.81143768     -0.57620626      1.55793449
H      -1.40843947     -1.83426541      0.40640676
H      -0.37032613      1.42883043      1.82941173
H       1.92009540      2.34968365      1.61838063
H       4.24476251      0.78550558     -0.55009801
H       2.73396043     -1.59671569     -1.78400934
H       0.61281234     -1.67469646     -1.00336703
