51
CCCCC(CC)C(=O)[O-].CCCCC(CC)C(=O)[O-].[Co+2]
C       3.57722120      0.42577147      0.66624723
C       2.54205580     -0.31439470     -0.11584448
C       1.11907407      0.08149842      0.30458110
C       0.20160733     -0.73672302     -0.56022522
C      -1.24586885     -0.53816996     -0.35103778
C      -1.72241312      0.87445919     -0.58188994
C      -3.22358047      0.86337456     -0.31664661
C      -1.70233541     -1.09629629      0.92289501
O      -0.88841883     -1.32792924      1.83983666
O      -3.03664911     -1.38155857      1.14796677
C      -2.93333044     -0.34178626     -0.99578179
C      -2.73832145      0.41705293      0.27733325
C      -1.32910534      0.98197871      0.32050557
C      -0.38080089     -0.18391875      0.24893434
C       1.06723017      0.23062337      0.28251031
C       1.86825839     -1.07576752      0.20109312
C       3.33147948     -0.77188049      0.22753892
C       1.43124991      1.15161929     -0.80303902
O       1.99819544      0.78082615     -1.83928176
O       1.12134692      2.50685240     -0.65446010
Co      0.00000000      0.00000000      0.00000000
H       4.41919923      0.67417706     -0.00924953
H       3.21416726      1.36095015      1.12583961
H       3.99172573     -0.25796732      1.43923822
H       2.60462226     -1.41625596      0.03996183
H       2.61440419     -0.11219445     -1.20546402
H       0.98988602     -0.07084992      1.37477181
H       0.92998597      1.15095923      0.09604799
H       0.42064904     -1.81549774     -0.29749750
H       0.54136849     -0.60930624     -1.61009035
H      -1.76728784     -1.14422882     -1.15157218
H      -1.58923670      1.11397332     -1.64858609
H      -1.21652998      1.61338216      0.03829873
H      -3.70454389      1.74471976     -0.78700757
H      -3.37665769      0.97276735      0.77562437
H      -3.69244469     -0.05466044     -0.70044195
H      -2.47930596     -1.35118123     -0.99575595
H      -4.03790195     -0.51561234     -1.11091256
H      -2.58531819      0.19096673     -1.89807880
H      -2.83855151     -0.25816775      1.13280544
H      -3.48818802      1.25053658      0.28139997
H      -1.16181805      1.61546136      1.20446138
H      -1.22962454      1.60310777     -0.61174738
H      -0.56095166     -0.71714275     -0.69829128
H      -0.54997168     -0.82405087      1.15029692
H       1.34506587      0.66925470      1.27747205
H       1.55661932     -1.63996639      1.12275544
H       1.54759145     -1.69207811     -0.64840528
H       3.48753407      0.26933645     -0.11160355
H       3.64888460     -0.78180912      1.30575074
H       3.90973406     -1.51425484     -0.35266108
