42
CN(C)CC/C=C1\c2ccccc2COc2ccccc21
C       5.06516208     -1.02318503     -0.07895504
N       4.01386590     -0.32355527      0.66511568
C       4.13388016      1.11986509      0.44467887
C       2.68915489     -0.83372261      0.26180440
C       1.54050546     -0.33787572      1.15750050
C       0.23330528     -1.00271101      0.79498689
C      -0.85801481     -0.45072842      0.21551107
C      -0.87178945      0.98667153     -0.13335205
C      -0.04382653      1.52047762     -1.12843637
C      -0.10490564      2.87986237     -1.43648917
C      -1.00288890      3.70764953     -0.76423867
C      -1.84655453      3.17839237      0.21343879
C      -1.78626181      1.81577992      0.53392982
C      -2.70496070      1.20186831      1.55684500
O      -3.72021462      0.41024254      0.94121569
C      -3.37630568     -0.81699573      0.42925196
C      -4.49458807     -1.63785613      0.21443257
C      -4.35902209     -2.91565175     -0.32482895
C      -3.09899306     -3.38326456     -0.67351425
C      -1.97895473     -2.57213002     -0.47856521
C      -2.09038400     -1.28387488      0.08656134
H       5.02663896     -2.10026898      0.11884153
H       6.05632113     -0.68416664      0.24283081
H       4.98034361     -0.86665292     -1.16053464
H       3.44625493      1.67912610      1.08621325
H       5.13940199      1.46651274      0.71018568
H       3.94165815      1.39630231     -0.59834473
H       2.70460542     -1.93057680      0.32438830
H       2.48381748     -0.58442032     -0.78768992
H       1.76125106     -0.58390100      2.20420381
H       1.45475885      0.75111006      1.11777840
H       0.19242081     -2.04597640      1.10894950
H       0.64335109      0.87912420     -1.67309089
H       0.54007097      3.29101160     -2.20844957
H      -1.05592692      4.76489852     -1.01156855
H      -2.55727266      3.83130540      0.71437334
H      -3.22032878      1.99722251      2.10834534
H      -2.15895435      0.62880110      2.31780531
H      -5.48524468     -1.26951524      0.47177978
H      -5.23719985     -3.53596767     -0.48144209
H      -2.98511534     -4.37209154     -1.10981601
H      -1.00906103     -2.95113521     -0.79439855
