16
Nc1ccc(N)cc1
N      -2.78579523      0.08049825     -0.35515557
C      -1.39267583      0.02591254     -0.23572840
C      -0.76948042     -1.13323301      0.22715176
C       0.61067747     -1.15918851      0.45964129
C       1.39303573     -0.02647609      0.23352881
N       2.74945100     -0.02359849      0.57726419
C       0.75068058      1.16266531     -0.11226200
C      -0.62947735      1.18862091     -0.34475149
H      -3.11441123      0.81890047     -0.96908907
H      -3.21296834     -0.81560531     -0.56649266
H      -1.35339375     -2.02771674      0.42487242
H       1.06452033     -2.07318904      0.83217268
H       3.28776940      0.69849923      0.10936483
H       3.18921234     -0.93600604      0.51196502
H       1.31538442      2.08722227     -0.19259064
H      -1.10252914      2.13269426     -0.59989116
