15
CC(N)CN
C      -1.15830687      0.98437383     -0.19043792
C      -0.50569951     -0.38586463     -0.01461383
N      -0.20009172     -0.58255955      1.41333546
C       0.78200189     -0.52439785     -0.86626317
N       1.91101249      0.22646456     -0.30210979
H      -2.09660001      1.04474978      0.37249256
H      -0.50920719      1.79655545      0.15462982
H      -1.39361223      1.16618655     -1.24457781
H      -1.21723590     -1.15668750     -0.33322429
H      -1.06714878     -0.56573325      1.94971847
H       0.19647431     -1.51405369      1.54191824
H       0.60350623     -0.20390531     -1.89826917
H       1.07219900     -1.58098313     -0.90075776
H       1.71533055      1.22295856     -0.39413544
H       1.86737773      0.07289616      0.71229463
