15
Cc1c(Cl)cccc1Cl
C       2.19511170      0.23063638      0.02198510
C       0.69757226      0.07185160      0.03368616
C       0.09759867     -1.19820546     -0.05942204
Cl      1.03350999     -2.64869813     -0.18369099
C      -1.29520881     -1.34310922     -0.06983514
C      -2.11849681     -0.22346841     -0.00487712
C      -1.54725607      1.04350680      0.05896687
C      -0.15478744      1.19161894      0.06955301
Cl      0.45702031      2.81003880      0.11090827
H       2.51798089      1.10809990      0.59019628
H       2.55206694      0.32394172     -1.00836118
H       2.70003128     -0.61571688      0.49716195
H      -1.74334348     -2.33219357     -0.13530494
H      -3.19951645     -0.33708280     -0.01507993
H      -2.19228299      1.91878034      0.09411370
