14
O=[N+]([O-])c1cc(Cl)c(Cl)c(Cl)c1Cl
O      -2.84428904     -0.02255684     -1.30568943
N      -2.35888877      0.19081656     -0.18935559
O      -2.97968628      0.44202590      0.84931945
C      -0.92581328      0.08051843     -0.07553642
C      -0.40601849     -1.17944134      0.22885020
C       0.97448368     -1.32598313      0.34718862
Cl      1.56335844     -2.90719069      0.72520264
C       1.82625775     -0.22204652      0.16262405
Cl      3.54622465     -0.42711258      0.31491190
C       1.27745968      1.04369860     -0.14482982
Cl      2.32723501      2.41421895     -0.37444015
C      -0.11615638      1.20172531     -0.26646797
Cl     -0.81651359      2.74399892     -0.64307038
H      -1.06765339     -2.03267156      0.37129290
