16
Nc1ccccc1[N+](=O)[O-]
N       1.41085646     -1.72816552     -0.12242029
C       0.37849113     -0.77354196     -0.15560359
C      -0.93715087     -1.23687492     -0.30775436
C      -2.03155683     -0.36966678     -0.21646248
C      -1.83722164      0.97869291      0.07054929
C      -0.54716042      1.46009709      0.28070517
C       0.54861798      0.58327588      0.18508025
N       1.88299999      1.13536891      0.42392164
O       1.97445733      2.10201765      1.19575602
O       2.84120801      0.62233106     -0.17690178
H       1.23913202     -2.55376443     -0.68885771
H       2.33671686     -1.33188103     -0.30870974
H      -1.12423117     -2.29225708     -0.49617147
H      -3.03916437     -0.75585073     -0.35459434
H      -2.69031120      1.64886192      0.14745325
H      -0.40568328      2.51135703      0.52401015
