24
Cc1ccccc1C(C)C
C       0.86696658      2.17958054     -0.63668236
C       1.13425927      0.75789676     -0.22150243
C       2.47162766      0.33954890     -0.09950367
C       2.78604002     -0.96360647      0.28104880
C       1.76768676     -1.86956243      0.54577849
C       0.43598050     -1.47125745      0.42963505
C       0.09270063     -0.15908532      0.04645436
C      -1.37797135      0.22769341     -0.06630531
C      -2.09579253      0.11126475      1.28206041
C      -2.09611315     -0.59605981     -1.13990492
H       1.79716408      2.73481194     -0.79897593
H       0.30665049      2.70466773      0.14346038
H       0.30640439      2.20229085     -1.57665469
H       3.28420138      1.03418036     -0.30248828
H       3.82490107     -1.26889659      0.37006738
H       2.00652166     -2.88701109      0.84289724
H      -0.34074559     -2.20243212      0.64328702
H      -1.46431625      1.27527302     -0.37223401
H      -2.13843284     -0.92340025      1.63874994
H      -1.58825500      0.70871262      2.04760248
H      -3.12579021      0.47551505      1.20126217
H      -2.13876316     -1.66006399     -0.88367770
H      -3.12611777     -0.24550505     -1.26758780
H      -1.58880664     -0.50455539     -2.10678662
