35
CCCCCCOCCOCCO
C      -5.39293569     -0.19306211      2.01416646
C      -3.90110445     -0.47415886      1.93105429
C      -3.39639693     -0.39866934      0.49027791
C      -1.89504529     -0.68215346      0.41107368
C      -1.39086522     -0.60632819     -1.03298039
C       0.09859039     -0.93287815     -1.14384021
O       0.89299318     -0.05217431     -0.35138628
C       1.22631895      1.18208901     -0.99721057
C       2.48714420      1.04598416     -1.85994144
O       3.70609406      1.13628479     -1.11120175
C       3.89976849      0.04139491     -0.20499141
C       5.34793899      0.08576089      0.27437104
O       5.60738110      1.33113304      0.92134254
H      -5.96266355     -0.92158162      1.42850114
H      -5.62508584      0.80817436      1.63738327
H      -5.73248068     -0.25224343      3.05297132
H      -3.69905666     -1.46895594      2.34488360
H      -3.36342430      0.25127128      2.55263077
H      -3.94043424     -1.12319742     -0.12788858
H      -3.60441897      0.59697312      0.07979091
H      -1.68769530     -1.67855585      0.81981336
H      -1.35538312      0.04191772      1.03302372
H      -1.95405086     -1.30870486     -1.65863261
H      -1.58292598      0.40012581     -1.42130279
H       0.42055397     -0.91490976     -2.19086919
H       0.27516309     -1.94732765     -0.77000234
H       0.38402954      1.52954211     -1.60416697
H       1.40018517      1.91811792     -0.20548511
H       2.51360875      1.87985217     -2.56905020
H       2.49429608      0.11627891     -2.43837801
H       3.23143466      0.17066563      0.65162756
H       3.69954521     -0.91222633     -0.70436752
H       6.03870446      0.00481130     -0.57074767
H       5.55249342     -0.72252893      0.98169164
H       5.20772338      2.00573373      0.33783984
