33
C=CCCCCCCCCC(=O)O
C       5.70809939     -0.49416581     -1.02254078
C       5.45714864     -0.12228256      0.23939747
C       4.11256842      0.07600779      0.88757899
C       2.88414786     -0.17680998      0.00689897
C       1.58691152      0.05796079      0.78522478
C       0.35888771     -0.19351016     -0.09143100
C      -0.93725016      0.04013145      0.68646286
C      -2.16562270     -0.21072753     -0.19059062
C      -3.46234179      0.02060613      0.59155389
C      -4.70873421     -0.24680266     -0.25149115
C      -4.95848523      0.81972648     -1.28470000
O      -4.44229985      1.92109540     -1.35788104
O      -5.89424064      0.44260927     -2.17853246
H       6.73109233     -0.60222845     -1.37122146
H       4.92053669     -0.69963109     -1.73936323
H       6.31017368      0.06433506      0.89124781
H       4.07413704      1.10504749      1.26630256
H       4.06504010     -0.58312900      1.76343498
H       2.90777572      0.48847499     -0.86509951
H       2.89962225     -1.20818353     -0.36670186
H       1.56516203      1.08820578      1.16086747
H       1.55704415     -0.60550426      1.65809867
H       0.38080030     -1.22350495     -0.46774011
H       0.38840583      0.47031559     -0.96404333
H      -0.95916308      1.07012783      1.06278830
H      -0.96667276     -0.62390389      1.55890555
H      -2.12933319      0.45068918     -1.06382655
H      -2.14326320     -1.24118229     -0.56570018
H      -3.47862294     -0.65277063      1.45738627
H      -3.48248897      1.04493064      0.98299179
H      -5.58621509     -0.27464969      0.40420092
H      -4.61835675     -1.21642145     -0.75347840
H      -5.97446314      1.21514407     -2.77655146
