27
CC(C)(C)c1ccc(C(=O)O)cc1
C      -2.09919965     -1.40574421     -0.94289494
C      -1.76491212     -0.20364767     -0.03340951
C      -2.24776124     -0.50292730      1.40229142
C      -2.58463156      1.00082335     -0.54901575
C      -0.24386985      0.03462478     -0.02878252
C       0.33576964      1.24103019     -0.45649456
C       1.72382109      1.42724075     -0.44024529
C       2.56905855      0.40884911      0.00535350
C       4.03112683      0.65294160      0.00401135
O       4.58384408      1.67633559     -0.35495412
O       4.73798919     -0.39931691      0.45388535
C       2.01593726     -0.79811712      0.43495850
C       0.62821950     -0.97919187      0.41675384
H      -1.64531183     -2.33601853     -0.58417626
H      -1.74128977     -1.23803731     -1.96566342
H      -3.18118148     -1.57559559     -0.99175909
H      -1.99770051      0.32022331      2.08212761
H      -3.33477008     -0.64222342      1.43277241
H      -1.79697613     -1.41439095      1.80988449
H      -3.65935897      0.78304878     -0.53326541
H      -2.42771956      1.89097701      0.07128253
H      -2.32291967      1.25414659     -1.58298863
H      -0.27224861      2.06814275     -0.81342762
H       2.13928480      2.37475309     -0.77868841
H       5.66817837     -0.09620505      0.39612233
H       2.65125575     -1.60719049      0.78667877
H       0.23536599     -1.93453049      0.75964342
