20
COP(=O)(OC)C(O)C(Cl)(Cl)Cl
C       0.67924892      2.52295242      0.81141773
O       0.27773347      1.16787336      0.89618524
P      -0.04418369      0.41860506     -0.49693131
O      -0.80367619      1.25754372     -1.47812689
O       1.43547642      0.04865075     -1.03635538
C       2.29990279     -0.74640127     -0.25041465
C      -0.82300698     -1.13803629     -0.05184135
O      -0.59489361     -2.08205382     -1.13550516
C      -2.31239276     -0.99822009      0.29378566
Cl     -2.90828348     -2.57708877      0.95700380
Cl     -3.31030789     -0.64772047     -1.15410083
Cl     -2.63034619      0.23318930      1.54929577
H       1.52444140      2.62746139      0.12573317
H       0.98485920      2.85989129      1.80498827
H      -0.15748153      3.13817524      0.47037872
H       2.28427684     -0.43020987      0.79553114
H       3.31773669     -0.63582952     -0.63312905
H       2.01249037     -1.79775001     -0.32439396
H      -0.28011619     -1.54004252      0.81139962
H      -0.95147760     -1.68098991     -1.95492054
