22
CC(O)CC(C)(C)O
C      -2.77266725     -0.82072121     -0.04350047
C      -1.50629410     -0.09328311     -0.47515660
O      -1.82090034      1.29313223     -0.57673638
C      -0.36787007     -0.31718709      0.53290563
C       0.98731767      0.30208368      0.12343835
C       1.97939352      0.18542816      1.28546552
C       1.56974560     -0.36016044     -1.12742846
O       0.79031200      1.69253484     -0.15914708
H      -3.12425626     -0.45472307      0.92753273
H      -2.60773627     -1.90014639      0.02651496
H      -3.58129597     -0.63737995     -0.75942658
H      -1.22190591     -0.44744673     -1.47043330
H      -0.96541684      1.77378304     -0.53704915
H      -0.67583480      0.13974780      1.48365433
H      -0.23768211     -1.39169569      0.71280348
H       1.60794054      0.71581449      2.16970057
H       2.93953883      0.64847873      1.03042026
H       2.16096963     -0.85969808      1.55655086
H       2.55650832      0.05587171     -1.36249557
H       1.67641041     -1.44190478     -0.99775633
H       0.94888497     -0.16999839     -2.00882899
H       1.66483843      2.08747025     -0.33102779
