19
COc1ccc(C)cc1
C      -3.34075860     -0.45898618      0.00899913
O      -2.44409102      0.48880082     -0.55580603
C      -1.11258420      0.30615306     -0.30172039
C      -0.55511041     -0.71509823      0.46708985
C       0.83139331     -0.78421647      0.64737762
C       1.67705867      0.15944976      0.05350145
C       3.15885472      0.10184823      0.27669170
C       1.11289756      1.19009096     -0.70405699
C      -0.27107976      1.25700609     -0.88266369
H      -4.35546725     -0.17803975     -0.28917053
H      -3.14714194     -1.46521657     -0.37719611
H      -3.29817229     -0.43954603      1.10302491
H      -1.16804710     -1.47241809      0.94349247
H       1.24675996     -1.58401588      1.25668173
H       3.42500516      0.67300610      1.17137491
H       3.49466278     -0.93269074      0.40388430
H       3.69957956      0.51516544     -0.58122177
H       1.74413807      1.94798337     -1.16180387
H      -0.69789720      2.05997488     -1.47847869
