37
CCOC1Oc2ccc(OS(C)(=O)=O)cc2C1(C)C
C      -5.65821604     -0.16870757      0.32342318
C      -4.36296916      0.61927950      0.31646535
O      -3.31026041     -0.25662095     -0.07478951
C      -2.05191769      0.41556097     -0.15228055
O      -1.62241113      0.91846170      1.14092463
C      -0.25558594      0.86128139      1.06880185
C       0.59205753      1.49949685      1.94780663
C       1.96663245      1.34713890      1.75244282
C       2.46538288      0.55969741      0.69671717
O       3.83506312      0.49371990      0.62693351
S       4.61479927     -0.23641868     -0.60390881
C       6.26077697      0.15331969     -0.06680162
O       4.43909902     -1.67158026     -0.50726566
O       4.36185364      0.48381853     -1.83579350
C       1.58344956     -0.09445294     -0.16893346
C       0.21951324      0.07011147      0.03244177
C      -0.94371427     -0.53975984     -0.68437561
C      -0.84101692     -0.47381603     -2.20917632
C      -1.13524017     -1.99536102     -0.23171274
H      -6.49919164      0.46512836      0.61824074
H      -5.86085255     -0.58610802     -0.66849108
H      -5.59174067     -1.01346395      1.01707081
H      -4.16998765      1.01715953      1.31837164
H      -4.43995250      1.45060915     -0.39285870
H      -2.15722310      1.28695427     -0.81633484
H       0.20226722      2.10157484      2.76074979
H       2.65731870      1.84410650      2.42967448
H       6.37226726      1.23848834     -0.02633457
H       6.42675401     -0.29137982      0.91628089
H       6.96255039     -0.26737091     -0.78991290
H       1.92692172     -0.73355178     -0.97559501
H      -0.02608156     -1.10430746     -2.58263775
H      -1.77026715     -0.81436345     -2.67918609
H      -0.64438424      0.54744043     -2.55585513
H      -1.26989174     -2.06952842      0.85398945
H      -0.26436483     -2.60831580     -0.49308550
H      -2.01143761     -2.44824084     -0.70879628
