28
CCCC(O)C(CC)CO
C       2.96498334     -0.88329029      0.76630328
C       2.59315845      0.18873953     -0.24640705
C       1.11785687      0.14872216     -0.66662451
C       0.13223932      0.46430675      0.46913520
O       0.42645747      1.75976486      0.99858099
C      -1.36549492      0.39909846      0.06444962
C      -1.84146904     -1.00651481     -0.35327745
C      -1.62035281     -2.07658705      0.70579027
C      -1.73735454      1.40260526     -1.04280524
O      -1.37767289      2.73011556     -0.67348184
H       2.68424006     -1.87834982      0.40704509
H       2.47741673     -0.71203111      1.73024759
H       4.04619890     -0.87787944      0.93815016
H       2.84939342      1.17591147      0.15447418
H       3.20907453      0.04618633     -1.14271332
H       0.99980320      0.88806402     -1.46758080
H       0.89946836     -0.83435102     -1.09741079
H       0.29514121     -0.23206176      1.29649882
H       0.17351028      2.40697357      0.30672670
H      -1.93355250      0.70207809      0.95606645
H      -1.35494152     -1.31643758     -1.28530855
H      -2.91680238     -0.96337123     -0.56889924
H      -0.55660213     -2.28867653      0.84716096
H      -2.10232320     -3.01092478      0.39999734
H      -2.04781034     -1.77409056      1.66680039
H      -1.23163776      1.16489901     -1.98370233
H      -2.81530714      1.38754710     -1.23846518
H      -1.96762096      2.98955381      0.05924924
