7
C#CC
C       1.68155471     -0.24633524     -0.36467542
C       0.49964697     -0.07319472     -0.24298895
C      -0.94073890      0.13781117     -0.09469026
H       2.73058102     -0.40000936     -0.47268090
H      -1.15155060      0.80596456      0.74573647
H      -1.45605676     -0.81005245      0.08748985
H      -1.36343644      0.58581605     -0.99901653
