7
O=[V](=O)O[V](=O)=O
O       2.78886417     -1.29855551     -0.08940876
V       1.30455629      0.18800072      0.14170725
O       1.77170132      1.58456478      0.59130429
O      -0.04232158     -0.47361677     -0.97260638
V      -1.45430633     -0.40624136     -0.52849261
O      -2.16714857      1.63164956     -0.24294706
O      -2.20134530     -1.22580142      1.10044327
