49
CC1(C)C(C(=O)OC(C#N)c2cccc(Oc3ccccc3)c2)C1(C)C
C      -1.31594845      1.61002125      0.42329672
C      -1.90852832      0.65729359      1.44099507
C      -1.27602719      0.83539904      2.80551591
C      -2.32036256     -0.76031896      1.04736407
C      -2.11595245     -1.32214929     -0.30784559
O      -2.98805966     -1.93914621     -0.89890579
O      -0.85246591     -1.12318127     -0.74787402
C      -0.58874717     -1.63077990     -2.07088753
C      -1.15705823     -0.74409584     -3.11217494
N      -1.60253241     -0.04006448     -3.92297818
C       0.92427621     -1.73360933     -2.19771141
C       1.52368373     -2.89591193     -2.70892149
C       2.91288843     -2.98540614     -2.82422251
C       3.71971267     -1.92001126     -2.42428597
C       3.14130263     -0.76463507     -1.90226640
O       4.00193175      0.25228494     -1.54972359
C       3.65727232      1.01973976     -0.46124840
C       3.58323641      2.40071135     -0.64038291
C       3.25331030      3.22155336      0.43829237
C       3.01585974      2.66147222      1.69463933
C       3.11573712      1.28118178      1.87681886
C       3.44489435      0.45741992      0.79994271
C       1.75035043     -0.66076964     -1.81427196
C      -3.39788593      0.28013749      1.33551364
C      -4.23330488      0.83240984      0.19824562
C      -4.21223240      0.11011100      2.60064488
H      -1.56684144      2.64217530      0.68986580
H      -0.22445672      1.52054555      0.40950087
H      -1.66317576      1.43626118     -0.59779370
H      -0.18377522      0.84273817      2.72191481
H      -1.53438489      0.03233264      3.50180041
H      -1.59148737      1.78656406      3.24605100
H      -2.19503533     -1.53230674      1.80256346
H      -1.01188454     -2.63965405     -2.16068161
H       0.91656996     -3.74178671     -3.02636106
H       3.36886365     -3.88642825     -3.22805707
H       4.80030588     -1.99155135     -2.51704490
H       3.77343322      2.83384472     -1.61835899
H       3.18579477      4.29773977      0.30046382
H       2.76175479      3.30299973      2.53481754
H       2.94315721      0.84863221      2.85869227
H       3.53598064     -0.61494617      0.94664404
H       1.30025776      0.25808513     -1.44309609
H      -5.14398251      0.23637900      0.07363073
H      -4.52892078      1.86321786      0.41960428
H      -3.71907175      0.83003331     -0.76600599
H      -3.69545737     -0.48214251      3.36177207
H      -5.15408508     -0.40542139      2.38311003
H      -4.44890966      1.08965350      3.02939980
