22
CC(C)NC(C)C
C      -1.88871786      0.68923837      0.73474964
C      -1.13686243     -0.50569119      0.14610302
C      -2.08274652     -1.31129000     -0.75060012
N       0.01870390     -0.10365768     -0.66443756
C       1.09377575      0.59440738      0.04986122
C       2.10998345      1.06778934     -0.99385348
C       1.79321100     -0.29029680      1.08330596
H      -2.80835887      0.36025889      1.23137628
H      -2.16904119      1.40845539     -0.04294867
H      -1.28957669      1.21328842      1.48576585
H      -0.82077023     -1.16776546      0.95974772
H      -1.58242679     -2.19788512     -1.15636281
H      -2.44721926     -0.71186396     -1.59272032
H      -2.95340467     -1.65726175     -0.18270147
H       0.40486490     -0.92331372     -1.13360926
H       0.70510236      1.49028781      0.54548240
H       1.63654189      1.72313621     -1.73375576
H       2.91613224      1.63685082     -0.51790129
H       2.56415234      0.22520765     -1.52786044
H       2.65227010      0.23165990      1.51924276
H       1.12328092     -0.55249238      1.90798852
H       2.16110565     -1.21906210      0.63312782
