16
C1CCOCC1
C      -0.79776735     -0.86259307      0.40245209
C      -1.25178507      0.29825226     -0.47613749
C      -0.29025263      1.47350954     -0.35619361
O       1.04350744      1.06995392     -0.66651835
C       1.52486250      0.06792395      0.22919790
C       0.66912738     -1.18926016      0.14337367
H      -1.41980816     -1.74439696      0.21390264
H      -0.92992146     -0.59377248      1.45768840
H      -1.27477974     -0.04122945     -1.51902325
H      -2.26698447      0.60659174     -0.20549463
H      -0.31484458      1.90765096      0.65026252
H      -0.57372472      2.26014435     -1.06259726
H       2.55672045     -0.16400337     -0.05299928
H       1.54275500      0.46916574      1.24935574
H       1.02354030     -1.94151875      0.85572811
H       0.75935513     -1.61641822     -0.86299719
