21
CC1OC(C)OC(C)O1
C      -1.54495320     -2.18267182      0.67306687
C      -0.87655022     -1.05039515     -0.08718099
O       0.52659055     -1.25314594     -0.03943105
C       1.18268291     -0.16664499     -0.67287475
C       2.68105132     -0.36902076     -0.52890890
O       0.84182100      1.06629625     -0.05979910
C      -0.56464796      1.24455682     -0.10733582
C      -0.90486183      2.52707979      0.63170313
O      -1.23938729      0.17311584      0.53214318
H      -2.63316911     -2.06519993      0.67432456
H      -1.28600884     -3.15321058      0.23830513
H      -1.21524032     -2.19327860      1.71824665
H      -1.22615763     -1.06610918     -1.12814174
H       0.92836918     -0.14146092     -1.74093934
H       2.99361982     -1.31654560     -0.97892355
H       3.23409151      0.45282020     -0.99446210
H       2.96667658     -0.39855166      0.52881071
H      -0.89982005      1.33504465     -1.14922969
H      -0.39732392      3.38566982      0.18087711
H      -0.58182695      2.46733627      1.67731489
H      -1.98495555      2.70431549      0.63243481
