29
CC1=C(C(=O)Nc2ccccc2)SCCO1
C      -2.30263663     -2.36975110     -0.67247561
C      -2.52602629     -1.00466544     -0.07349025
C      -1.52427549     -0.16640791      0.28940900
C      -0.06945740     -0.61196172      0.23186744
O       0.23611807     -1.79307698      0.35605162
N       0.81345291      0.43468304      0.04186992
C       2.21546484      0.38409564     -0.07629599
C       2.95991570     -0.79628056     -0.06014959
C       4.35255799     -0.75757516     -0.18716124
C       5.01152439      0.46082561     -0.33216929
C       4.27842586      1.64384893     -0.35074404
C       2.88734400      1.60494987     -0.22386790
S      -1.79940417      1.46798321      0.85772369
C      -3.56101044      1.63865351      0.48401360
C      -4.25998736      0.35219347      0.86750148
O      -3.88102067     -0.71800373      0.00259001
H      -2.15148936     -3.11332906      0.11603112
H      -3.17645850     -2.67918150     -1.25759957
H      -1.45480142     -2.38537639     -1.36396075
H       0.39047552      1.35612140      0.02001293
H       2.48823440     -1.76754342      0.04908935
H       4.91941051     -1.68510316     -0.17188492
H       6.09353931      0.48631297     -0.43001336
H       4.78776518      2.59724529     -0.46325103
H       2.33841855      2.54281592     -0.24042251
H      -3.96176498      2.48405408      1.05033495
H      -3.67433151      1.84525457     -0.58522205
H      -4.08875824      0.06649670      1.91347045
H      -5.34122477      0.48272192      0.74900921
