25
O=C(Nc1cccc(Cl)c1)OCC#CCCl
O       0.00334113     -1.06668111     -1.60296960
C       0.20010437     -0.42080320     -0.58599040
N      -0.71963232      0.19551139      0.21341753
C      -2.11647248      0.24099050      0.06718588
C      -2.83683326      0.94984484      1.03872563
C      -4.22899108      1.04458344      0.96845994
C      -4.91388637      0.42975307     -0.07645878
C      -4.20155218     -0.27561146     -1.04390626
Cl     -5.05182203     -1.03486111     -2.33496227
C      -2.80960755     -0.37321013     -0.97804304
O       1.42988594     -0.19841139     -0.05637811
C       2.49181202     -0.79536905     -0.80426550
C       3.76368776     -0.48740684     -0.13744336
C       4.79735703     -0.22775330      0.41880283
C       6.05208635      0.09105979      1.09955342
Cl      5.69345955      1.06825202      2.53694354
H      -0.30664023      0.67140427      1.00412563
H      -2.32412390      1.43842535      1.86420744
H      -4.77679734      1.59708364      1.72781279
H      -5.99669073      0.50256169     -0.13245167
H      -2.29315509     -0.93191161     -1.75170993
H       2.35075069     -1.88162377     -0.84565308
H       2.50158986     -0.38950811     -1.82247070
H       6.57116075     -0.81424324      1.42553067
H       6.72096908      0.66792435      0.45527370
