58
Cc1nc2n(c(=O)c1CCN1CCC(c3noc4cc(F)ccc34)CC1)CCCC2O
C       2.04617853      2.42229603     -1.42351178
C       2.99185831      1.42302507     -0.80590629
N       4.22032902      1.39485428     -1.41428781
C       5.12280929      0.58373013     -0.95713733
N       4.92747455     -0.24903963      0.11524884
C       3.67797443     -0.34196312      0.69797108
O       3.38779479     -1.18556924      1.54494899
C       2.65381317      0.62670476      0.22442362
C       1.34022243      0.63433581      0.96718856
C       0.36671999     -0.42105814      0.41411020
N      -0.93350164     -0.43521245      1.11888878
C      -1.64450141     -1.68869693      0.80918790
C      -2.96130739     -1.79161750      1.58138951
C      -3.86843886     -0.56659637      1.40841409
C      -4.69824008     -0.58693619      0.15167643
N      -4.16906941     -0.92005255     -1.03423688
O      -5.19640954     -0.82040884     -1.95543424
C      -6.33384789     -0.42400752     -1.32872977
C      -7.56896091     -0.20913172     -1.93003910
C      -8.58898931      0.20283501     -1.07504671
F      -9.80678697      0.43652583     -1.58393917
C      -8.38494469      0.38601593      0.29229571
C      -7.12440672      0.15804326      0.86433484
C      -6.07677284     -0.25836205      0.02186898
C      -3.06580448      0.73142987      1.55176255
C      -1.76663353      0.71843007      0.74483762
C       5.91181293     -1.24403521      0.52435346
C       7.33792659     -0.93385068      0.10453902
C       7.36164989     -0.58199352     -1.37301087
C       6.50449758      0.64614443     -1.62054155
O       7.17845732      1.79778533     -1.11366842
H       0.99786361      2.23586893     -1.17562763
H       2.11850426      2.38539495     -2.51692316
H       2.30540107      3.43550851     -1.09836045
H       0.90253549      1.63675891      0.92576637
H       1.51446943      0.45254892      2.03586564
H       0.84614966     -1.40197970      0.53253493
H       0.21613280     -0.27826680     -0.66447170
H      -1.81523337     -1.78658028     -0.26944177
H      -1.02481145     -2.54446081      1.10681836
H      -2.72194493     -1.89467623      2.64910527
H      -3.48714516     -2.71079527      1.29359598
H      -4.58451908     -0.59425141      2.24249133
H      -7.72969173     -0.34897080     -2.99022999
H      -9.21642003      0.71057453      0.91310405
H      -6.96991951      0.30340985      1.92927916
H      -2.81491953      0.87295763      2.61166327
H      -3.67005784      1.59883280      1.25908221
H      -1.24575332      1.65563916      0.96577747
H      -1.98091509      0.72169591     -0.33085099
H       5.87092949     -1.36647416      1.61358083
H       5.59586952     -2.19970155      0.08591694
H       7.97790083     -1.80175368      0.29696753
H       7.73339730     -0.10268999      0.70067302
H       8.39655440     -0.39477484     -1.68206789
H       6.98286314     -1.42812991     -1.95880266
H       6.37523563      0.78938462     -2.69949498
H       6.58662127      2.55130660     -1.29790142
