28
CCNc1nc(Cl)nc(NC(C)C)n1
C       4.80415358     -0.35152776      0.62466465
C       3.33354469     -0.48159363      0.26014822
N       2.82938153      0.80982403     -0.17194084
C       1.50749525      0.80909298     -0.60066403
N       1.22562358      1.65268102     -1.57423495
C      -0.04815584      1.62910628     -1.93444014
Cl     -0.48903697      2.70386845     -3.18929211
N      -1.02320466      0.88015519     -1.44650806
C      -0.62909513      0.06912219     -0.48333022
N      -1.52757415     -0.79236823      0.12329957
C      -2.92067361     -0.37386531      0.21224444
C      -3.09619168      0.70678915      1.27906481
C      -3.76222246     -1.60088287      0.56538636
N       0.61759752      0.00142216     -0.03199886
H       5.39475552     -0.01937565     -0.23580191
H       4.94596659      0.37749387      1.42960168
H       5.20054661     -1.31476286      0.96034158
H       3.22672919     -1.22535795     -0.53882146
H       2.78633859     -0.83882440      1.14063692
H       3.36969571      1.26673249     -0.89986794
H      -1.10582180     -1.11787062      0.98662657
H      -3.28101379      0.00226713     -0.75329867
H      -2.74232856      0.36245422      2.25738239
H      -2.53417925      1.61174597      1.02514539
H      -4.15018048      0.98710734      1.37818955
H      -3.64883923     -2.38073824     -0.19586355
H      -4.82422386     -1.34135892      0.62774044
H      -3.45908690     -2.03133606      1.52659067
