6
[Na+].[O-][Cl+3]([O-])([O-])[O-]
Na      0.00000000      0.00000000      0.00000000
O       1.40873450     -0.24601632     -0.23967984
Cl     -0.00000001     -0.00000002     -0.00000004
O      -0.22287961      1.42471910      0.15166910
O      -0.77459165     -0.49364564     -1.12197379
O      -0.41126324     -0.68505711      1.20998457
