38
CCOC(=O)CC(SP(=S)(OC)OC)C(=O)OCC
C      -4.73730613      3.00693718     -0.87585717
C      -3.47405066      2.69739565     -0.09640258
O      -2.60733915      1.92557532     -0.93649983
C      -1.43999196      1.55289130     -0.34289055
O      -1.10832747      1.83591652      0.79958581
C      -0.59904455      0.76856699     -1.32054877
C       0.51428816      0.01598298     -0.58949670
S       1.80560199     -0.40956924     -1.82886429
P       3.60168014     -0.07983619     -0.77703708
S       5.28342799     -0.27952388     -1.74811524
O       3.42479677      1.41658146     -0.15705977
C       4.39353428      1.90831614      0.74979974
O       3.53883421     -0.93589020      0.60029352
C       3.77036297     -2.33225567      0.54818957
C       0.03920189     -1.27357457      0.08563914
O       0.76137199     -2.22485670      0.35838785
O      -1.28894190     -1.22191954      0.38665815
C      -1.83604571     -2.36927003      1.05494118
C      -2.23994355     -3.42150320      0.03968822
H      -5.42693252      3.60890360     -0.27738694
H      -5.24205941      2.08168736     -1.17255516
H      -4.50043531      3.55014655     -1.79658322
H      -3.72627174      2.12401367      0.80314065
H      -2.97589574      3.63118033      0.18614692
H      -0.19091788      1.50512522     -2.02369828
H      -1.24612131      0.07430041     -1.87046140
H       0.96739473      0.63930815      0.18650730
H       3.97006244      2.76795806      1.27578797
H       5.28168085      2.23808332      0.20539425
H       4.66727837      1.15033717      1.48765824
H       4.84525200     -2.52576923      0.59242340
H       3.35200896     -2.77116182     -0.36121143
H       3.29874179     -2.79768471      1.41749736
H      -2.71970947     -2.02731464      1.60391511
H      -1.13374388     -2.77141045      1.79422373
H      -2.72251224     -4.27098226      0.53140506
H      -1.36933152     -3.78743447     -0.51249033
H      -2.93059742     -2.99925057     -0.69777622
