33
Cc1ccc2nc(-c3ccc(N)cc3)sc2c1S(=O)(=O)O
C       4.87547342     -2.19746605     -0.23913098
C       3.49424336     -1.72117854      0.13385287
C       2.95662513     -2.19905716      1.33574961
C       1.67369735     -1.83952059      1.74675194
C       0.89078069     -0.99373436      0.94272258
N      -0.39890688     -0.59570989      1.24313410
C      -0.88718344      0.17650497      0.29448281
C      -2.24727552      0.75568173      0.32839111
C      -2.78903714      1.53504633     -0.70479454
C      -4.08800277      2.05535525     -0.61261575
C      -4.89555817      1.77850533      0.48999959
N      -6.14138810      2.39812900      0.62751477
C      -4.34627790      1.05640049      1.54760598
C      -3.04996289      0.53386117      1.45946737
S       0.19996570      0.46223790     -1.00203295
C       1.42306446     -0.49949475     -0.24973691
C       2.73887355     -0.82132524     -0.66474356
S       3.43462103     -0.13375539     -2.15642106
O       4.86031843      0.04482864     -1.98113595
O       2.89292662     -0.87794074     -3.27014529
O       2.88088747      1.37707117     -2.24874788
H       4.92019420     -2.48642005     -1.29364117
H       5.15398982     -3.09014642      0.33264600
H       5.61724212     -1.42314984     -0.02294440
H       3.53234672     -2.87264273      1.96979157
H       1.26380113     -2.22166951      2.67721550
H      -2.21780887      1.76740496     -1.59976029
H      -4.46171339      2.68119846     -1.41917208
H      -6.59030300      2.62119819     -0.25520254
H      -6.76856821      1.92164354      1.26814911
H      -4.92038752      0.88815522      2.45485756
H      -2.66245750     -0.04425087      2.29736753
H       3.65578008      1.96423980     -2.37682656
