38
CCCCOCCOC(=O)COc1ccc(Cl)cc1Cl
C      -5.87218513      1.16620695     -1.63841503
C      -6.00825855      0.45076566     -0.30336413
C      -5.19796463     -0.84170695     -0.22047477
C      -3.68970438     -0.62403517     -0.28661504
O      -3.05241080     -1.89098199     -0.10596777
C      -1.62872157     -1.80172626     -0.14627792
C      -1.04702885     -1.41163735      1.21236462
O       0.38946863     -1.39754505      1.18312458
C       0.94675442     -0.26659225      0.65239941
O       0.30785107      0.67222398      0.19921956
C       2.46349112     -0.37932994      0.71736610
O       3.08083241      0.77117572      0.15581953
C       4.44954900      0.82297863      0.13640984
C       5.28893094     -0.17784110      0.63857059
C       6.67929662     -0.03259187      0.57308994
C       7.23660453      1.11146376      0.00658168
Cl      8.94665139      1.27934655     -0.06861183
C       6.41931891      2.11665041     -0.49752055
C       5.03144637      1.97099087     -0.43181945
Cl      4.05720336      3.24880964     -1.07281937
H      -6.54420737      2.02981009     -1.67175706
H      -6.13267942      0.50214746     -2.46860852
H      -4.85368070      1.53349061     -1.79464895
H      -7.06581145      0.20925406     -0.14335696
H      -5.71244984      1.12893989      0.50546975
H      -5.50321891     -1.53145766     -1.01737484
H      -5.44067162     -1.35406409      0.71929832
H      -3.40192654     -0.21595067     -1.26113796
H      -3.37599059      0.06915364      0.50047823
H      -1.30193798     -1.12674948     -0.94564807
H      -1.24767528     -2.79293287     -0.41765829
H      -1.43525963     -0.45114946      1.57049975
H      -1.35065577     -2.14983072      1.96341280
H       2.73851447     -0.47201418      1.77426694
H       2.74941448     -1.27072314      0.14723998
H       4.89975931     -1.08548993      1.08874284
H       7.32143302     -0.81730265      0.96682256
H       6.85591893      3.00824485     -0.93899827
