36
C=CCCCCCCCCC(=O)OC
C      -6.25801824      1.13259955      1.41894600
C      -5.21421138      1.20898081      0.58371208
C      -4.97621110      0.25685716     -0.55398358
C      -3.73693121     -0.62342737     -0.36163711
C      -2.42136618      0.16046538     -0.39515324
C      -1.21589093     -0.77679284     -0.29193612
C       0.09960267      0.00312080     -0.32336307
C       1.30433017     -0.93363123     -0.22016401
C       2.61910301     -0.15438155     -0.25159748
C       3.81942095     -1.08744439     -0.14828075
C       5.10636445     -0.30728999     -0.21194834
O       5.76620074     -0.15233008     -1.23037382
O       5.40892947      0.21011918      1.01051486
C       6.61101302      0.98057600      1.03180934
H      -7.00725272      0.35236882      1.32764038
H      -6.38314051      1.85613171      2.21873392
H      -4.49713070      2.01657761      0.71450114
H      -4.88314263      0.83357850     -1.48200037
H      -5.84763369     -0.39732276     -0.68332528
H      -3.72381498     -1.37359968     -1.16235561
H      -3.81537070     -1.17356768      0.58455708
H      -2.38923020      0.87861712      0.43201230
H      -2.36013346      0.73493994     -1.32736585
H      -1.23648883     -1.49498858     -1.12063568
H      -1.27863362     -1.35425586      0.63844581
H       0.12078191      0.72133272      0.50532410
H       0.16198182      0.58076576     -1.25364602
H       1.28312916     -1.65189193     -1.04881526
H       1.24203912     -1.51113431      0.71023010
H       2.68405207      0.42772954     -1.17943880
H       2.64026502      0.56937908      0.57268364
H       3.79883977     -1.66845230      0.78097246
H       3.82278971     -1.81289095     -0.97016100
H       6.52426943      1.84458880      0.36552893
H       6.76228585      1.34420149      2.05192810
H       7.46920277      0.36047154      0.75439440
