15
C=CCCC
C       2.63154091      0.04547153      0.10039420
C       1.44128725      0.51120130     -0.29837825
C       0.16400035     -0.27582073     -0.23223622
C      -0.85627247      0.39781668      0.68572763
C      -2.15602141     -0.38960567      0.74464410
H       3.52263853      0.66092158      0.02327138
H       2.74603434     -0.95279985      0.51121306
H       1.37909565      1.51762152     -0.70780844
H       0.35657427     -1.29770004      0.11695720
H      -0.24540374     -0.35827934     -1.24620605
H      -0.44671128      0.48978334      1.69907309
H      -1.06932648      1.41380559      0.33151861
H      -2.87173021      0.10931076      1.40553359
H      -2.61021137     -0.47166881     -0.24798337
H      -1.98549435     -1.40005785      1.12967127
