9
OCC(Cl)(Cl)Cl
O      -1.22782461      1.16996329     -0.02330405
C      -0.72355208     -0.16923233     -0.13429615
C       0.76671240     -0.32192565      0.23972312
Cl      1.75523804      0.75043911     -0.80394817
Cl      1.28517036     -2.01420260     -0.01491705
Cl      1.04288757      0.12316443      1.94813122
H      -0.65187563      1.75303192     -0.55248372
H      -1.34788506     -0.80001234      0.50881826
H      -0.89887100     -0.49122583     -1.16772346
