33
Cc1cc2ccccc2c2ccc3ccccc3c12
C      -0.46739801      2.93060778     -0.01999282
C       0.26119138      1.60905544     -0.00807482
C       1.66455822      1.72909007     -0.05279702
C       2.50236187      0.62566579     -0.11893437
C       3.89592653      0.82281606     -0.16174666
C       4.77316350     -0.25222982     -0.24255910
C       4.26184244     -1.53669530     -0.28195526
C       2.87686798     -1.73488287     -0.23951977
C       1.94041596     -0.66285512     -0.15637134
C       0.49949263     -0.80719410     -0.10298138
C      -0.07513613     -2.09018688     -0.18173520
C      -1.44343394     -2.31620056     -0.12615160
C      -2.32467684     -1.26556788      0.05208751
C      -3.69545595     -1.57396017      0.13632800
C      -4.64398688     -0.58569330      0.35248264
C      -4.22053405      0.71920117      0.50017973
C      -2.85473231      1.02586806      0.41009400
C      -1.83518512      0.06314040      0.15563432
C      -0.38253085      0.32139849      0.02221251
H       0.20061119      3.76182132     -0.27632172
H      -1.24290256      2.93930688     -0.79151222
H      -0.87327124      3.15247549      0.97106929
H       2.10997558      2.72399281     -0.04773600
H       4.31055310      1.82870615     -0.13355785
H       5.84572336     -0.08447716     -0.27457661
H       4.93104343     -2.39071897     -0.34364508
H       2.54502694     -2.76826261     -0.26640750
H       0.53726023     -2.97837192     -0.30333399
H      -1.80155380     -3.34074746     -0.20499012
H      -4.03680599     -2.60328952      0.04102350
H      -5.69796411     -0.83745430      0.41996580
H      -4.94110981      1.50955933      0.69389537
H      -2.61933674      2.06608273      0.57992775
