35
O=C1CCCCCCCCCCC1
O      -1.49646654     -2.80626769     -0.33997134
C      -0.72637281     -2.19519443      0.40367682
C      -1.17392252     -0.96275598      1.17901026
C      -2.35042234     -0.25205461      0.50107439
C      -2.50977891      1.20947886      0.93577389
C      -1.87181456      2.25733048      0.00508187
C      -0.33979027      2.30871538      0.01234913
C       0.29746290      1.38917577     -1.03360780
C       1.80557066      1.23607715     -0.81295515
C       2.42315872      0.02679775     -1.53284428
C       1.77941975     -1.33459984     -1.22569699
C       1.78136024     -1.70804491      0.26250136
C       0.68840787     -2.71141225      0.63059828
H      -0.33280208     -0.27634805      1.27523115
H      -1.45287717     -1.28117504      2.18941402
H      -2.28774283     -0.31381403     -0.59142306
H      -3.26342452     -0.79712974      0.77541020
H      -2.15398934      1.34952859      1.96352740
H      -3.58607246      1.42675014      0.95605425
H      -2.24850794      2.13393133     -1.01734568
H      -2.23118693      3.23749951      0.34554437
H       0.03030494      2.07828023      1.01788876
H      -0.02180886      3.33592289     -0.20695658
H      -0.19159065      0.41881313     -1.00176202
H       0.11477943      1.78832282     -2.03878801
H       2.30849810      2.14693811     -1.16144558
H       2.02760932      1.16918617      0.25754943
H       3.48950060     -0.01948605     -1.27964690
H       2.36849292      0.19624707     -2.61537502
H       2.32663477     -2.10957094     -1.77784221
H       0.76583089     -1.35300266     -1.63805242
H       1.68266013     -0.82715255      0.89905228
H       2.75795129     -2.14249223      0.51027852
H       0.81761958     -3.62883032      0.04431955
H       0.77330860     -2.98966407      1.68702086
