15
O=S1(=O)CCCC1
O       0.02756452      2.15622618      1.30261636
S      -0.03105678      1.47778421      0.02462585
O      -0.11901627      2.19535130     -1.23010144
C       1.32420669      0.31729843     -0.06845591
C       0.68127100     -1.02406251     -0.40217876
C      -0.63737618     -1.06459866      0.36737332
C      -1.33631694      0.25894406      0.07805820
H       2.03831377      0.64060268     -0.82842001
H       1.80717662      0.28739787      0.91261385
H       0.48122315     -1.08490402     -1.47879504
H       1.33601663     -1.85863415     -0.13446368
H      -1.25667810     -1.91655491      0.07155442
H      -0.43419583     -1.15280548      1.44150591
H      -1.81829123      0.24147486     -0.90380103
H      -2.06284106      0.52648014      0.84786797
