57
CN(C)CCOc1ccc(/C(=C(/CCCl)c2ccccc2)c2ccccc2)cc1
C       7.94424333      0.65068571      0.36279891
N       6.68063587     -0.06221410      0.57339569
C       6.64350471     -0.60269739      1.93482066
C       5.54628501      0.84880699      0.31972172
C       4.18989733      0.13711405      0.18766003
O       3.19961710      1.12953298     -0.10661777
C       1.91374612      0.69407113     -0.27054521
C       1.47915009     -0.62917274     -0.19802505
C       0.12673788     -0.93695471     -0.38912786
C      -0.80739266      0.07427162     -0.64840748
C      -2.23835400     -0.27264783     -0.87000639
C      -3.20579468      0.09706572      0.01568947
C      -4.70130303     -0.15067357     -0.17204947
C      -5.21816505     -1.25980025      0.74276350
Cl     -6.94627731     -1.56864823      0.43461301
C      -2.89256398      0.83334379      1.26789462
C      -2.20667798      0.20192598      2.31485083
C      -1.92655906      0.89365751      3.49513090
C      -2.33236554      2.21971676      3.64086512
C      -3.01625900      2.85627614      2.60691195
C      -3.29593197      2.16655642      1.42546614
C      -2.62342687     -1.02667784     -2.09057862
C      -2.73304878     -0.35788391     -3.31685599
C      -3.09293056     -1.05719051     -4.47033762
C      -3.34040660     -2.42826771     -4.40644504
C      -3.22484471     -3.10366120     -3.19092243
C      -2.86570074     -2.40659878     -2.03586438
C      -0.36413108      1.39902224     -0.73131402
C       0.98619961      1.70344689     -0.53989861
H       8.02470527      0.98996026     -0.67645733
H       8.04145950      1.52364494      1.02000969
H       8.79863279     -0.01373456      0.54126540
H       5.74910450     -1.21301921      2.09858488
H       7.49775557     -1.26701008      2.10457634
H       6.66706673      0.18854836      2.69228355
H       5.71245803      1.38917226     -0.62386398
H       5.48111462      1.62808057      1.09285201
H       4.24391861     -0.59229720     -0.63031487
H       3.93159966     -0.36488872      1.12685935
H       2.16314753     -1.44771221     -0.00091780
H      -0.19124313     -1.97511791     -0.33405935
H      -4.93597149     -0.40017844     -1.21339396
H      -5.25995035      0.77590399      0.02063816
H      -4.68274425     -2.20039869      0.57556354
H      -5.12251323     -0.99047657      1.79977658
H      -1.88018700     -0.83027857      2.21575064
H      -1.38798042      0.39876799      4.29893448
H      -2.11089385      2.75840110      4.55881084
H      -3.32932647      3.89134423      2.71782908
H      -3.82154348      2.68165761      0.62458827
H      -2.53827883      0.71026518     -3.37819169
H      -3.17612985     -0.53245843     -5.41930740
H      -3.61950348     -2.97175306     -5.30590107
H      -3.41321205     -4.17364590     -3.14399158
H      -2.77283207     -2.94485103     -1.09574222
H      -1.06481093      2.20240344     -0.94385907
H       1.31827460      2.73726548     -0.60790907
