42
CCCCCCCCOC(=O)c1cc(O)c(O)c(O)c1
C      -6.95030909     -0.05855708     -1.65778675
C      -6.29103336      0.58139337     -0.44551667
C      -4.76640548      0.47814091     -0.51377749
C      -4.11489783      1.12259667      0.71178660
C      -2.58478299      1.15527780      0.64417274
C      -1.94715469     -0.23668541      0.64938201
C      -0.43094848     -0.20421811      0.85101523
C       0.32212820      0.51659117     -0.26346897
O       1.73442098      0.46116619     -0.00149505
C       2.39793856     -0.59304676     -0.53396663
O       1.91224776     -1.48545366     -1.21101943
C       3.84540738     -0.52737695     -0.19764098
C       4.36483436      0.42698069      0.69244685
C       5.72643172      0.43052832      0.96705603
O       6.23221744      1.35631309      1.83314702
C       6.57048825     -0.49736299      0.37054753
O       7.90628408     -0.46768178      0.66566944
C       6.06193411     -1.44190177     -0.51294117
O       6.93932124     -2.32907414     -1.07176961
C       4.70201519     -1.46577606     -0.80362075
H      -6.69166166     -1.11920180     -1.73411740
H      -8.03953851      0.02074761     -1.58247746
H      -6.63702294      0.43907342     -2.58177128
H      -6.58975256      1.63505018     -0.39033466
H      -6.65737197      0.09215113      0.46542082
H      -4.48068264     -0.57708661     -0.57987021
H      -4.40536859      0.97072065     -1.42445973
H      -4.43110652      0.59431539      1.61957702
H      -4.47369852      2.15454403      0.80806145
H      -2.27757079      1.70523878     -0.25299581
H      -2.21739245      1.72368435      1.50771391
H      -2.38703063     -0.83339092      1.45801136
H      -2.17218656     -0.75704159     -0.28886630
H      -0.06275920     -1.23558068      0.92829655
H      -0.18942716      0.26387555      1.81416171
H       0.05483952      1.57803735     -0.28695529
H       0.08186519      0.10218549     -1.24987626
H       3.72647097      1.15941237      1.17790669
H       7.19197464      1.16562522      1.86968485
H       8.28789444     -1.19587436      0.13261787
H       6.44510058     -2.91294773     -1.67432652
H       4.29428798     -2.19539134     -1.49736130
