12
O=c1ccc(=O)[nH][nH]1
O       2.63321303     -0.36364398     -0.05608270
C       1.41762591     -0.21816194     -0.03088417
C       0.81352121      1.12696121      0.02095158
C      -0.51247217      1.29124229      0.04861064
C      -1.42805403      0.13439738      0.02847489
O      -2.64238560      0.28996488      0.05396319
N      -0.83765440     -1.09965122     -0.01969637
N       0.54256872     -1.27065093     -0.04848737
H       1.50008879      1.96359971      0.03509827
H      -0.97303559      2.27000214      0.08668518
H      -1.44111792     -1.91528991     -0.03461032
H       0.92770205     -2.20876961     -0.08402281
