32
C=CCC1(CC(C)C)C(=O)NC(=O)NC1=O
C      -3.48413863     -1.91398741      0.13106274
C      -2.31357111     -1.85403355      0.77811638
C      -0.97228191     -1.81147103      0.08767152
C      -0.24710672     -0.43116664      0.07823714
C       1.13010686     -0.62587915     -0.62524423
C       1.92835379      0.64465710     -1.01252084
C       3.19035992      0.23138798     -1.78051635
C       2.32694532      1.51852816      0.17470932
C      -0.05212350     -0.01902393      1.52487814
O       0.82140230     -0.49276607      2.24981655
N      -0.94201404      0.88278966      2.03598541
C      -1.77906384      1.67124686      1.31273385
O      -2.37489747      2.61255982      1.82594878
N      -1.88195026      1.40289496     -0.01454985
C      -1.10918253      0.52670426     -0.72171548
O      -1.16857711      0.51159674     -1.95066308
H      -4.42124909     -1.96548760      0.67825888
H      -3.54067948     -1.92021010     -0.95419156
H      -2.31511799     -1.87248601      1.86723804
H      -1.09553286     -2.16293439     -0.94657571
H      -0.33401968     -2.55848328      0.57957596
H       0.96295590     -1.19303451     -1.55247529
H       1.77124600     -1.26530726     -0.00267262
H       1.32635555      1.25680512     -1.69377900
H       3.85502791     -0.37479462     -1.15550347
H       3.74933080      1.11187062     -2.11512946
H       2.93199200     -0.35363410     -2.66958531
H       2.98591791      2.33277269     -0.14695136
H       2.86020124      0.93970396      0.93572120
H       1.45380592      1.98649877      0.63635859
H      -0.80554762      1.15087028      3.00081714
H      -2.45694757      2.03381268     -0.55505602
