94
C[C@@H]1C/C=C/C=C/C=C/C=C/[C@H](O[C@@H]2O[C@H](C)[C@@H](O)[C@H](N)[C@@H]2O)C[C@@H]2O[C@](O)(C[C@@H](O)C[C@H]3O[C@@H]3/C=C/C(=O)O1)C[C@H](O)[C@H]2C(=O)O
C      -7.15840332      2.98379597     -1.20169764
C      -6.59608387      2.27676393      0.03387581
C      -5.11134651      2.58683224      0.28910050
C      -4.83806326      4.05938636      0.51465773
C      -3.95643706      4.82963561     -0.13958439
C      -3.04914592      4.41187845     -1.17905087
C      -1.95541569      3.63720879     -1.03148561
C      -1.44954433      3.09071384      0.20720325
C      -0.42311739      2.22550466      0.34732155
C       0.32043223      1.57246015     -0.71243359
C       1.46631230      0.88559033     -0.54775941
C       2.27372626      0.73754759      0.71621798
O       3.64899920      0.61175050      0.32166299
C       4.54149680      1.36223603      1.15993271
O       4.60944938      2.74326809      0.76392635
C       5.25386557      2.99649284     -0.49284143
C       4.35757530      2.70649630     -1.69578939
C       6.65693985      2.34984490     -0.57675594
O       7.55892023      3.06351073      0.29601701
C       6.68335880      0.86455503     -0.15989051
N       6.17211317     -0.08085890     -1.19179232
C       5.95061165      0.70061421      1.18785527
O       5.90762193     -0.70314104      1.50830641
C       1.89687426     -0.50338194      1.55870199
C       2.13535497     -1.83790628      0.81455497
O       0.98135909     -1.95862192     -0.03152034
C       0.85068088     -3.13778202     -0.80865833
O       1.90061264     -3.17791270     -1.76585406
C      -0.48707635     -3.02472178     -1.56056162
C      -1.75084128     -3.07023115     -0.67851067
O      -1.54069494     -2.40286951      0.56000886
C      -2.96394625     -2.44941032     -1.38965658
C      -4.19406582     -2.45988668     -0.51791909
O      -4.37592741     -1.22929969      0.21357430
C      -5.38229222     -1.54112215     -0.77659338
C      -6.72046837     -1.97949013     -0.36716056
C      -7.68997602     -1.24328173      0.21210239
C      -7.66724458      0.20393101      0.51284396
O      -8.46636875      0.70410831      1.29110521
O      -6.71330294      0.85785732     -0.19381772
C       0.93020379     -4.39320750      0.05223963
C       2.19166855     -4.34723047      0.91313111
O       2.17146786     -5.47768716      1.80197321
C       2.23513021     -3.05361345      1.75190615
C       3.51319451     -2.99157250      2.58296410
O       4.05048888     -1.94870001      2.96161379
O       3.98857004     -4.19164086      2.99699044
H      -7.09176706      4.07057598     -1.12652219
H      -6.62466095      2.67183693     -2.11167363
H      -8.21311298      2.70932534     -1.33820368
H      -7.16373537      2.60131948      0.92110664
H      -4.50931666      2.18060835     -0.53851340
H      -4.80532348      2.04055406      1.18426857
H      -5.43200196      4.53992352      1.28992799
H      -3.92551927      5.89528264      0.11419821
H      -3.25899230      4.82176435     -2.16491022
H      -1.36881904      3.46040948     -1.92209385
H      -1.93095667      3.45132188      1.11451277
H      -0.15646283      1.94951284      1.36774455
H      -0.11188344      1.59999442     -1.70719592
H       1.89191098      0.40021819     -1.42338676
H       2.14318574      1.64335742      1.32016130
H       4.15959471      1.34066150      2.19190633
H       5.39299597      4.09429909     -0.48772716
H       3.40259246      3.24155873     -1.60504858
H       4.10622011      1.65030491     -1.81842522
H       4.85073013      3.02767629     -2.62179182
H       7.06814632      2.45999904     -1.59162269
H       7.02039588      3.53150005      0.96967003
H       7.73309527      0.56505944     -0.01087147
H       5.14129989     -0.06567222     -1.13615161
H       6.38833881     -1.01260935     -0.81962387
H       6.54950697      1.19356310      1.96936443
H       5.25323832     -0.83518385      2.23633270
H       2.47456578     -0.44640405      2.48764567
H       0.84004074     -0.42637990      1.84591521
H       3.05243904     -1.77656889      0.20251527
H       1.87043783     -2.31191421     -2.21875479
H      -0.55529176     -3.79504360     -2.33610391
H      -0.47717009     -2.07186834     -2.10914702
H      -1.98073177     -4.11883009     -0.43542231
H      -1.06702146     -1.57275862      0.37320714
H      -3.17256950     -3.00938054     -2.30482676
H      -2.72907508     -1.41576067     -1.68496678
H      -4.34104064     -3.38350141      0.03440791
H      -5.37556795     -0.93329964     -1.67431428
H      -6.92999730     -3.03485318     -0.50720497
H      -8.59577055     -1.74223954      0.54254201
H       0.06549931     -4.47384281      0.72541973
H       0.93743569     -5.29848010     -0.57003645
H       3.10489219     -4.45290019      0.29630440
H       1.83751507     -6.24423710      1.29696458
H       1.40212336     -3.05195273      2.46185836
H       3.37332147     -4.92535933      2.76811129
