33
CNC(=O)C(C)(C(C)C)C(C)C
C      -0.37124580      3.40198953     -0.54525901
N      -0.13866883      1.97985481     -0.54547203
C      -0.09211648      1.26508152      0.63040059
O      -0.20931099      1.82254157      1.72066845
C       0.08434070     -0.27496631      0.49387492
C       0.35296842     -0.83039805      1.92283172
C       1.32607210     -0.59764093     -0.43270161
C       2.64144234      0.03815918      0.05354710
C       1.57290554     -2.09958369     -0.64587380
C      -1.25809231     -0.93198731     -0.03469866
C      -2.50271417     -0.54635111      0.78612495
C      -1.58487141     -0.70119931     -1.51765051
H      -1.42672794      3.58464532     -0.32694019
H       0.24780252      3.88538356      0.21534230
H      -0.12300348      3.79627510     -1.53328362
H      -0.12262949      1.50099682     -1.43335503
H       0.41758440     -1.92293210      1.92755108
H       1.28070552     -0.43310464      2.34676311
H      -0.43411065     -0.55057859      2.63065308
H       1.14524160     -0.17057174     -1.42571578
H       3.42387618     -0.08966096     -0.70350829
H       3.00686659     -0.42727595      0.97391877
H       2.53709135      1.11270822      0.22801634
H       2.40414996     -2.25220057     -1.34391310
H       0.70251145     -2.60115397     -1.07639694
H       1.83606551     -2.60655290      0.28732038
H      -1.15008772     -2.01901739      0.08322057
H      -2.40782066     -0.83538927      1.83574271
H      -3.39013245     -1.06085206      0.39957208
H      -2.70229701      0.52884369      0.73964527
H      -1.88411886      0.33119200     -1.71746710
H      -0.75349253     -0.96081021     -2.17648667
H      -2.42818341     -1.33544427     -1.81647106
