64
O=C1NC(=O)C2C3C(C(O)(c4ccccc4)c4ccccn4)=CC(C3=C(c3ccccc3)c3ccccn3)C12
O      -1.88639846     -4.32934293      1.16723176
C      -1.24427194     -3.60284973      0.42521758
N      -1.27679027     -3.63964332     -0.93280777
C      -0.35047397     -2.84170635     -1.52875228
O      -0.14833910     -2.76822229     -2.72969623
C       0.41521602     -2.09826995     -0.46471086
C       0.15410945     -0.57797668     -0.46196859
C       0.93947130      0.02877661      0.70717978
C       2.07389482      1.00281600      0.46091729
O       1.38540952      2.13756038     -0.12466493
C       2.80314313      1.51230010      1.71997876
C       3.08268547      2.88376603      1.88301026
C       3.76088891      3.35996962      3.00872804
C       4.18261813      2.47648218      3.99570315
C       3.93673844      1.11482100      3.85494944
C       3.26260089      0.63731894      2.72625819
C       3.06612011      0.47939269     -0.60478986
C       3.86595061     -0.64461714     -0.39052158
C       4.69271574     -1.09587415     -1.41731493
C       4.70131979     -0.42411363     -2.63279959
C       3.88166505      0.68231138     -2.77493258
N       3.06936225      1.14695055     -1.80010999
C       0.32728785     -0.40504801      1.83559419
C      -0.84575009     -1.28183978      1.42375084
C      -1.23412299     -0.58643978      0.13675811
C      -2.41175559     -0.10437591     -0.30507633
C      -2.45331015      0.60479140     -1.60200948
C      -3.20403622      0.07806067     -2.65752008
C      -3.25140036      0.73620053     -3.88987661
C      -2.55287063      1.92667368     -4.07289178
C      -1.81743472      2.47255173     -3.01980843
C      -1.77259761      1.81692714     -1.78754134
C      -3.61828465     -0.34436116      0.51269175
C      -4.40728413      0.71269917      0.95591172
C      -5.52620729      0.42633504      1.73179864
C      -5.82710470     -0.89934778      2.03209301
C      -4.99294348     -1.88841395      1.53983310
N      -3.90300816     -1.64148829      0.78499168
C      -0.23660889     -2.57669782      0.86370615
H      -1.88826401     -4.25569955     -1.44328373
H       1.47394022     -2.37056358     -0.51836239
H       0.26404595     -0.08326461     -1.42641962
H       1.74987891      2.18969191     -1.03382863
H       2.76912058      3.60218642      1.12824212
H       3.95742627      4.42315075      3.10895006
H       4.70508797      2.84984822      4.87286708
H       4.27033219      0.42264320      4.62417957
H       3.09157468     -0.43411343      2.65375339
H       3.84333844     -1.18227553      0.54985351
H       5.32269809     -1.97214841     -1.27402834
H       5.32996613     -0.75707215     -3.45224199
H       3.85376410      1.24313750     -3.70535263
H       0.55796926     -0.14463094      2.85798844
H      -1.61630630     -1.39039136      2.18527121
H      -3.75026019     -0.85247769     -2.52857843
H      -3.82692116      0.31030494     -4.71026344
H      -2.58390774      2.43414224     -5.03570432
H      -1.27688372      3.40395862     -3.15788816
H      -1.19343689      2.24757196     -0.97245982
H      -4.15253798      1.74056404      0.70927830
H      -6.15774109      1.23145216      2.09491842
H      -6.69155832     -1.15704303      2.63184700
H      -5.18847810     -2.94244186      1.74146907
H       0.49694864     -3.04260599      1.53128313
