17
COc1ccc(O)cc1
C       2.92231532     -0.43942696      0.02285820
O       1.76285995     -0.81212651     -0.71129299
C       0.56445557     -0.33598608     -0.25533625
C      -0.54514421     -0.73003450     -1.01062676
C      -1.83235310     -0.31679587     -0.65935183
C      -2.00336422      0.49527735      0.45515032
O      -3.23821676      0.92536336      0.83960128
C      -0.91151397      0.89546367      1.21590492
C       0.37579728      0.48005340      0.86158549
H       2.87961077     -0.82034501      1.04861211
H       3.06661168      0.64596552      0.00889109
H       3.78833745     -0.89631540     -0.46572794
H      -0.40211177     -1.36559829     -1.88123118
H      -2.67554120     -0.63681456     -1.26232330
H      -3.89574498      0.56959904      0.21960694
H      -1.06050100      1.53050217      2.08469786
H       1.20450322      0.81121866      1.47767207
