56
C[C@@H]1C[C@H]2[C@@H]3C[C@H](F)C4=CC(=O)C=C[C@]4(C)[C@H]3[C@@H](O)C[C@]2(C)[C@H]1C(=O)CO
C      -3.44348308     -2.66097629      0.17746611
C      -2.91011303     -1.42692286     -0.55036398
C      -1.46733961     -1.67787567     -1.06054886
C      -0.61182177     -0.76882241     -0.18638737
C       0.83520095     -0.47390057     -0.60823782
C       1.62143331     -1.78145909     -0.79272284
C       3.09755440     -1.53861617     -1.07228192
F       3.71017430     -2.75681908     -1.12804023
C       3.69750668     -0.67039465      0.00268275
C       4.71693267     -1.11400240      0.76053320
C       5.28129785     -0.30716289      1.85953593
O       6.20691434     -0.71907337      2.54653274
C       4.67701494      1.01555213      2.10363947
C       3.66326994      1.46042308      1.34961983
C       3.02919876      0.69964693      0.18923085
C       3.29762259      1.54482141     -1.07628093
C       1.50069887      0.43716991      0.48280954
C       0.63910259      1.70182960      0.77626280
O       0.72691776      2.62742241     -0.29744882
C      -0.84315946      1.37185454      1.05859916
C      -1.48483357      0.49363462     -0.03235171
C      -1.65767039      1.28471777     -1.35797269
C      -2.82765142     -0.17972270      0.38460531
C      -4.04544232      0.74881951      0.35568685
O      -3.94004719      1.97436166      0.47440043
C      -5.43639775      0.12448312      0.31776776
O      -6.45314094      1.11834754      0.32322257
H      -2.80987920     -2.92437914      1.03134321
H      -3.47005717     -3.52248277     -0.49838728
H      -4.45894215     -2.50130957      0.54853069
H      -3.55670015     -1.23159127     -1.41396693
H      -1.16673687     -2.72746089     -0.97627085
H      -1.38495308     -1.39919937     -2.11751009
H      -0.54910169     -1.26565376      0.79682748
H       0.83977682      0.04589844     -1.57142270
H       1.20146787     -2.36668096     -1.61966139
H       1.52194409     -2.41443512      0.09949621
H       3.23365063     -1.07701706     -2.05532278
H       5.16756138     -2.09095296      0.62038533
H       5.10697757      1.60057353      2.90755617
H       3.28326099      2.45921802      1.55571134
H       2.71434008      1.20903210     -1.93883695
H       3.07358637      2.60624239     -0.92383862
H       4.35572542      1.49627821     -1.36600435
H       1.46805000     -0.14654350      1.41888627
H       1.03111747      2.21070416      1.66344382
H       0.13705879      3.37637677     -0.09621880
H      -0.89893496      0.85317592      2.02461730
H      -1.41184530      2.30258134      1.16933799
H      -2.07837855      2.27884059     -1.17340454
H      -2.33095982      0.78197701     -2.06000198
H      -0.71716765      1.43772300     -1.89095882
H      -2.75053146     -0.51877937      1.42789037
H      -5.56971110     -0.50025052      1.20419139
H      -5.55855493     -0.46946688     -0.58949044
H      -6.00180281      1.97024560      0.49854331
