36
CC(=O)O[C@H]1C[C@@H](C)CC[C@@H]1C(C)C
C      -1.68222038      3.54321844      0.90935136
C      -1.40569047      2.10746406      1.23516527
O      -1.75498750      1.55535012      2.26836755
O      -0.71376680      1.52766566      0.21636933
C      -0.37278774      0.13957798      0.38594659
C      -1.56536551     -0.70337115     -0.09187158
C      -1.26510756     -2.20364124     -0.05339525
C      -2.45774110     -3.00723452     -0.56828783
C      -0.00810639     -2.51887380     -0.86835135
C       1.18595338     -1.69225896     -0.39708522
C       0.89757621     -0.17700593     -0.44109636
C       2.17500415      0.62549710     -0.04173704
C       2.49014396      0.59472603      1.45609748
C       2.14320841      2.07784146     -0.53003868
H      -2.26524755      3.99258031      1.71834559
H      -0.74070013      4.08930115      0.81216276
H      -2.26289251      3.60877127     -0.01422745
H      -0.17609562     -0.08114276      1.44274535
H      -2.44386748     -0.48407263      0.52770268
H      -1.84274120     -0.39553303     -1.10939389
H      -1.08679366     -2.49561009      0.99007090
H      -2.25402042     -4.08184711     -0.51427673
H      -2.68714445     -2.75792819     -1.60989008
H      -3.35055227     -2.80500640      0.03272516
H      -0.18911544     -2.31919456     -1.93229142
H       0.23513587     -3.58474886     -0.78295515
H       2.04827034     -1.92655035     -1.03280498
H       1.44883989     -2.00078267      0.62153494
H       0.68435768      0.08114424     -1.48896307
H       3.02327712      0.15584368     -0.55899823
H       3.45378010      1.07809824      1.65230444
H       2.55769791     -0.42963556      1.83292668
H       1.73334572      1.12725364      2.04080840
H       3.13690196      2.53001792     -0.43388895
H       1.85784845      2.13384553     -1.58539478
H       1.45360305      2.69624098      0.05008477
