32
CCCCOP(=O)(O)OCCCC
C       5.58555260     -0.32931864     -1.34707701
C       4.62159228      0.49560948     -0.51016449
C       3.22160616     -0.11051456     -0.50880774
C       2.25899609      0.70499671      0.34349741
O       0.97065462      0.12084823      0.25975159
P      -0.12684327      0.64744064      1.30496902
O      -0.22163888      2.12834271      1.47225910
O       0.26924733     -0.09749264      2.66783751
O      -1.48578422     -0.09542389      0.88694311
C      -2.10948905      0.35680102     -0.30223752
C      -3.36822172     -0.45814259     -0.57646934
C      -4.39111093     -0.35156783      0.55684805
C      -5.68041620     -1.08080810      0.20936218
H       6.57312599      0.14135930     -1.35955696
H       5.69627524     -1.33831248     -0.93551130
H       5.23636663     -0.41788760     -2.38179777
H       4.58131351      1.51613599     -0.90841564
H       5.00281779      0.56265132      0.51644577
H       3.25485840     -1.14208892     -0.13374231
H       2.83551972     -0.17746042     -1.53462234
H       2.20045084      1.73516587     -0.02144963
H       2.59285921      0.72186354      1.38767911
H      -0.20588267      0.30226412      3.41830195
H      -1.41231579      0.24436291     -1.13908429
H      -2.35978578      1.41762881     -0.19724030
H      -3.81677416     -0.11069910     -1.51558115
H      -3.09555425     -1.51315034     -0.71390201
H      -4.61777971      0.70204779      0.75713286
H      -3.97845190     -0.77541149      1.47946827
H      -6.14383724     -0.65124992     -0.68459505
H      -6.39480242     -1.00427303      1.03547780
H      -5.49254823     -2.14371686      0.01584323
