16
OCc1ccc(Cl)cc1Cl
O      -2.63706675     -1.04751084      0.28405580
C      -2.00671136      0.21427660      0.08973728
C      -0.50314415      0.09409213      0.01745457
C       0.13494043     -1.15309434      0.13628961
C       1.52651699     -1.25881397      0.06870121
C       2.29819790     -0.11660629     -0.11887116
Cl      4.01169477     -0.24708555     -0.20205708
C       1.69317747      1.13022961     -0.23958269
C       0.30071492      1.23306581     -0.17158236
Cl     -0.39209664      2.81034169     -0.32849816
H      -3.59337644     -0.87583393      0.31812575
H      -2.28767997      0.85676767      0.93060213
H      -2.39080275      0.63477981     -0.84537915
H      -0.45264148     -2.05838065      0.28355950
H       1.99636836     -2.23453604      0.16337481
H       2.30190868      2.01830830     -0.38593005
