24
O=[N+]([O-])c1ccc(-c2ccccc2)cc1
O       5.04044452      1.16343789     -0.79474958
N       4.53068824      0.18104598     -0.23684111
O       5.17230083     -0.75533645      0.26088228
C       3.06587784      0.12251243     -0.16026952
C       2.30007391      1.16559719     -0.69217898
C       0.90457667      1.10308157     -0.61616407
C       0.25602923      0.01023158     -0.01338541
C      -1.21308042     -0.04847428      0.06341254
C      -1.86667036     -0.24290676      1.29187229
C      -3.26121936     -0.29818217      1.36557451
C      -4.02647732     -0.16089976      0.21048502
C      -3.39898664      0.03203794     -1.01741168
C      -2.00439019      0.08821876     -1.08951431
C       1.04869734     -1.02502713      0.51405450
C       2.44505091     -0.97598112      0.44412651
H       2.76620641      2.02880047     -1.16274375
H       0.31879499      1.92636773     -1.02329146
H      -1.28994943     -0.34141911      2.20940779
H      -3.74816414     -0.44583948      2.32609407
H      -5.11103212     -0.20423884      0.26718128
H      -3.99347331      0.13648133     -1.92139773
H      -1.53599674      0.22849502     -2.06168355
H       0.57586020     -1.89061453      0.97652229
H       3.02483892     -1.79738826      0.86001806
