8
FC(F)(F)C(F)(F)Cl
F      -1.20875738     -1.17311001      0.60719416
C      -0.76511533     -0.11438964     -0.11707226
F      -1.55229602      0.94164060      0.21165302
F      -1.01446019     -0.39692509     -1.42101650
C       0.71831963      0.18041726      0.13785861
F       0.93048670      0.49274252      1.44747634
F       1.12442281      1.26749915     -0.57698030
Cl      1.76739979     -1.19787480     -0.28911308
