26
CCCCCOC(=O)CC
C       4.76217814      0.38182414     -0.13511847
C       3.39780048      0.91525876      0.27163066
C       2.27683929     -0.03453828     -0.14939256
C       0.90837915      0.50480995      0.26092171
C      -0.21620373     -0.43695517     -0.15541511
O      -1.45882654      0.14180962      0.26559569
C      -2.55709355     -0.60396631     -0.04635290
O      -2.53463587     -1.67681792     -0.63196778
C      -3.79733502      0.10349268      0.44447286
C      -5.06147581     -0.67625613      0.12821092
H       4.96018979     -0.58737250      0.33369564
H       5.54878437      1.07650743      0.17565248
H       4.82742071      0.25840838     -1.22086684
H       3.37684914      1.05769748      1.35836710
H       3.24481592      1.89882671     -0.18762264
H       2.43679530     -1.01793641      0.30927097
H       2.30477410     -0.17688035     -1.23658541
H       0.87008472      0.65757222      1.34680063
H       0.73909158      1.49205473     -0.18699044
H      -0.22088096     -0.55993159     -1.24480086
H      -0.08682366     -1.41393534      0.32487311
H      -3.71467318      0.23624507      1.52833386
H      -3.84818771      1.08675247     -0.03492759
H      -5.17409355     -0.82163604     -0.95132842
H      -5.04171070     -1.66493463      0.59868687
H      -5.94206243     -0.14009898      0.49512063
