21
COCC(C)OC(C)=O
C      -2.41363804      1.61035049     -0.81083588
O      -1.53467909      0.87508430      0.02987323
C      -1.04250871     -0.30132209     -0.62151413
C      -0.07296459     -1.06144656      0.30039061
C      -0.71902341     -1.40935895      1.63784446
O       1.09360747     -0.26334953      0.59553263
C       2.01939412     -0.17487151     -0.39521012
C       3.15202575      0.70362089      0.03897228
O       1.95086393     -0.72788193     -1.48397647
H      -2.76143054      2.48879270     -0.26076548
H      -3.28150545      1.00213727     -1.08322558
H      -1.89067747      1.94661582     -1.71125820
H      -0.53802126     -0.00200767     -1.54617428
H      -1.88965404     -0.94889307     -0.87629883
H       0.23908980     -1.99570694     -0.18332312
H      -0.02075543     -1.98492437      2.25554362
H      -0.96757295     -0.50875839      2.20966388
H      -1.62796483     -2.00215250      1.49785033
H       3.88731720      0.77221187     -0.76785600
H       2.77967766      1.70784467      0.25649279
H       3.63841988      0.27401550      0.91827426
