62
Cc1ccc(Nc2ccc(Nc3ccc(C)cc3S(=O)(=O)[O-])c3c2C(=O)c2ccccc2C3=O)c(S(=O)(=O)[O-])c1.[Na+].[Na+]
C      -6.33609082     -3.97831160     -0.93007581
C      -5.45979670     -2.80453546     -0.62042286
C      -4.37128202     -2.48663035     -1.43354311
C      -3.54034995     -1.40590616     -1.11395918
C      -3.75776995     -0.60823146      0.02670850
N      -2.86471147      0.45178519      0.29759550
C      -1.44861489      0.45317663      0.31793470
C      -0.74688485     -0.75691296      0.40263344
C       0.64838949     -0.80054876      0.36601155
C       1.41226439      0.36577797      0.25653256
N       2.82706150      0.30803579      0.20235931
C       3.70221644     -0.78942722      0.35600633
C       3.58582682     -1.61073930      1.49212937
C       4.40725143     -2.72857776      1.68304481
C       5.37134703     -3.06876737      0.73174913
C       6.27475524     -4.24435255      0.94123319
C       5.51599513     -2.25437822     -0.39518800
C       4.68650812     -1.13205326     -0.58471559
S       4.98051975     -0.18080845     -2.10289324
O       6.41859678      0.07412096     -2.04386805
O       4.13900012      1.00643777     -1.95731534
O       4.55955375     -1.11840012     -3.14078994
C       0.71972313      1.59913075      0.21797316
C      -0.69462551      1.64404085      0.21203665
C      -1.36961681      2.96244841      0.02888168
O      -2.57128166      3.13313311      0.19416808
C      -0.57377078      4.12472848     -0.40335087
C      -1.21122864      5.28502403     -0.86497104
C      -0.45587235      6.38976226     -1.26463480
C       0.93610631      6.34171949     -1.19800994
C       1.57025766      5.19058646     -0.72867526
C       0.80919258      4.08154865     -0.33482679
C       1.47095716      2.88311989      0.19477468
O       2.60712589      3.00311329      0.63708485
C      -4.84290515     -0.95153216      0.84649439
S      -5.25919260     -0.06287012      2.37075611
O      -6.68770341      0.20232047      2.20285901
O      -4.92929287     -1.04692813      3.39942565
O      -4.40641842      1.12253082      2.34395669
C      -5.68242980     -2.03782821      0.52679185
Na      0.00000000      0.00000000      0.00000000
Na      0.00000000      0.00000000      0.00000000
H      -6.37376280     -4.16533157     -2.00886366
H      -7.36307987     -3.79770909     -0.59623550
H      -5.95302300     -4.87391813     -0.43114156
H      -4.15678739     -3.06991097     -2.32475808
H      -2.71207550     -1.16841486     -1.77837799
H      -3.26445721      1.13173410      0.97593492
H      -1.28574074     -1.69582461      0.50775954
H       1.12601708     -1.77593227      0.39076611
H       3.20397784      0.97782457     -0.49668833
H       2.85298247     -1.35901138      2.25593951
H       4.28386685     -3.32491731      2.58285481
H       7.14631789     -3.94710274      1.53173438
H       5.74927430     -5.04992736      1.46481308
H       6.61936852     -4.65072627     -0.01555250
H       6.26884262     -2.47484466     -1.15044170
H      -2.29824144      5.32511203     -0.91143343
H      -0.95577423      7.28495014     -1.62457264
H       1.52995569      7.19784848     -1.50670644
H       2.65711874      5.15003011     -0.67167737
H      -6.50758992     -2.26872988      1.19903007
