39
CCN(CC)c1nc(C)cc(OP(=S)(OC)OC)n1
C      -4.07941355     -0.91403028      1.64237884
C      -3.78027106     -0.27000782      0.29655997
N      -2.47156649     -0.68108702     -0.18853872
C      -2.37608093     -1.68511247     -1.23640804
C      -2.47763355     -1.05588085     -2.61872547
C      -1.35460642      0.04380122      0.16979054
N      -1.48311566      1.03532054      1.06505498
C      -0.38723667      1.73357741      1.41700178
C      -0.56623774      2.83353171      2.41912255
C       0.85627931      1.46368766      0.89442392
C       0.90747481      0.44143235     -0.01724888
O       2.04236949      0.01418586     -0.63508841
P       3.48801266      0.70708688     -0.53142501
S       3.68438472      2.51458041     -1.20703732
O       3.87725699      0.52056265      1.03150012
C       3.99184713     -0.78721224      1.55827713
O       4.44248939     -0.40237725     -1.23045968
C       4.26757151     -0.65972508     -2.61047218
N      -0.17196617     -0.27147072     -0.37684881
H      -5.08002512     -0.63113154      1.98375346
H      -4.03913736     -2.00620416      1.57159342
H      -3.35990087     -0.60209615      2.40608017
H      -3.86888335      0.82115502      0.36603988
H      -4.55651884     -0.58050303     -0.41405577
H      -1.45165133     -2.26974536     -1.15360324
H      -3.19008613     -2.41152736     -1.11949495
H      -1.65769336     -0.35425107     -2.80212830
H      -2.43826792     -1.83112668     -3.39034897
H      -3.41833758     -0.50780082     -2.73533422
H      -1.61443250      2.91633879      2.72437614
H       0.03375214      2.63286352      3.31220936
H      -0.26060183      3.79194350      1.98789487
H       1.71610067      2.03718253      1.20784820
H       4.93145618     -1.23860174      1.22956018
H       3.15045948     -1.41252741      1.24940315
H       3.99769592     -0.72291323      2.64935620
H       3.21089412     -0.80830716     -2.84826814
H       4.81505927     -1.57062351     -2.86606027
H       4.67056064      0.16701290     -3.20067849
