43
CN1C2CC(OC(=O)C(CO)c3ccccc3)CC1C1OC12
C      -5.02636261      1.44646878      0.13836888
N      -3.65237274      0.94911059      0.10945387
C      -3.56646663     -0.46727443     -0.32161740
C      -2.11617042     -0.67340367     -0.78185738
C      -1.06159810     -0.27001387      0.27292917
O       0.16209496      0.15223365     -0.37358170
C       0.96088023     -0.83053726     -0.87936023
O       0.70799833     -2.02889512     -0.84589749
C       2.22215095     -0.22903102     -1.47389600
C       2.78411610     -1.17349621     -2.54470098
O       3.59138376     -0.44338834     -3.47229501
C       3.26202485      0.10477914     -0.41331289
C       3.94743732      1.32779262     -0.47412509
C       4.91218465      1.65193283      0.48122078
C       5.20866878      0.75619067      1.50579516
C       4.54490834     -0.46664135      1.57281520
C       3.58049227     -0.79406560      0.61770492
C      -1.51231353      0.87748242      1.20388566
C      -3.02636897      0.92112009      1.45372467
C      -3.58759736     -0.33608730      2.07131950
O      -2.92231614     -1.58105845      1.86901882
C      -3.93469644     -1.23258833      0.92628135
H      -5.69170847      0.87040947      0.79044585
H      -5.04092461      2.48903837      0.47465728
H      -5.44996757      1.43677882     -0.87189785
H      -4.25158812     -0.68936876     -1.14737076
H      -1.96443200     -1.72511755     -1.05455544
H      -1.94461807     -0.09807317     -1.70195364
H      -0.81847267     -1.13543922      0.90153662
H       1.91617391      0.69870245     -1.97824574
H       3.39256049     -1.97360959     -2.10821484
H       1.97841341     -1.63623060     -3.12524011
H       4.02217762     -1.09914189     -4.04767773
H       3.73834241      2.03424801     -1.27519363
H       5.43495501      2.60277772      0.42176798
H       5.96024234      1.00907325      2.24867905
H       4.77969619     -1.16882477      2.36859933
H       3.08283265     -1.75965682      0.68936109
H      -1.19246470      1.83785611      0.77627768
H      -0.97728600      0.78624007      2.15766152
H      -3.27875791      1.80846587      2.04501747
H      -4.28942734     -0.20457343      2.87927874
H      -4.88382417     -1.74418417      0.91519334
