27
C=CCCCCCCC
C       4.65478285      0.05185247     -0.86766910
C       4.21146767     -0.72849014      0.12646401
C       2.78710832     -0.92471908      0.57367013
C       1.71495026     -0.14361590     -0.19372717
C       0.31697335     -0.43236224      0.35947927
C      -0.75544818      0.34603462     -0.40466120
C      -2.15221428      0.05761651      0.14797493
C      -3.22372126      0.83543933     -0.61561893
C      -4.61383018      0.55149027     -0.06928944
H       3.99108401      0.65164528     -1.48090249
H       5.71601962      0.10687940     -1.09249176
H       4.94979563     -1.29701251      0.69131802
H       2.73190230     -0.65625996      1.63608181
H       2.56250486     -1.99669250      0.50837991
H       1.74597828     -0.41436888     -1.25640163
H       1.91618971      0.93252705     -0.12325773
H       0.27942027     -0.16268987      1.42195475
H       0.10951284     -1.50718104      0.29083333
H      -0.54804978      1.42087926     -0.33615720
H      -0.71794352      0.07650451     -1.46717937
H      -2.35973387     -1.01725096      0.07967017
H      -2.18985834      0.32697238      1.21056628
H      -3.02324594      1.91098903     -0.54700801
H      -3.19313152      0.56670461     -1.67795166
H      -4.68770121      0.83953026      0.98423428
H      -5.36428330      1.11778642     -0.62968238
H      -4.85852859     -0.51220832     -0.15297898
