54
C[C@]12CCC(=O)C=C1CC[C@@H]1[C@@H]2[C@@H](O)C[C@]2(C=O)[C@@H](C(=O)CO)CC[C@@H]12
C      -2.84123480     -1.56324800     -0.21661410
C      -2.44904845     -0.34328552      0.64610092
C      -2.80168797     -0.64330207      2.13397367
C      -4.29327076     -0.61499991      2.42952938
C      -4.88101188      0.70741452      2.00924837
O      -5.82675306      1.22509537      2.59717405
C      -4.34260253      1.34813276      0.78698536
C      -3.27384026      0.85006716      0.14138759
C      -2.85317446      1.44079202     -1.18207791
C      -1.37587075      1.80280010     -1.19390376
C      -0.48508005      0.61232365     -0.81231210
C      -0.91220304      0.02751101      0.57461845
C       0.06615604     -1.09488930      1.03133655
O      -0.11072765     -2.22998133      0.19865298
C       1.54610782     -0.63716144      1.00491589
C       1.94804836     -0.09560738     -0.37943064
C       1.95721362     -1.25129948     -1.39076646
O       2.29934361     -2.39130148     -1.07299938
C       3.31451473      0.62319512     -0.45200486
C       4.50317565     -0.28999350     -0.75038004
O       4.92291623     -0.46924070     -1.89696194
C       5.13573063     -1.01778395      0.43314079
O       6.33252884     -1.68004308      0.05709730
C       3.12813018      1.70750270     -1.55053764
C       1.63804775      1.72652785     -1.91655329
C       0.98437264      1.05135935     -0.72177353
H      -2.41993152     -1.50871720     -1.22551826
H      -2.51603933     -2.50521300      0.23477067
H      -3.92924410     -1.63856894     -0.33080292
H      -2.31751030      0.09999202      2.78199546
H      -2.40512423     -1.61992491      2.43534479
H      -4.82674563     -1.42036748      1.91357476
H      -4.44882322     -0.73835922      3.50714649
H      -4.90930848      2.19726452      0.42241489
H      -3.43755772      2.33792259     -1.41951620
H      -3.06293902      0.71871805     -1.98037855
H      -1.11141148      2.16237035     -2.19493817
H      -1.20096599      2.63722990     -0.50268859
H      -0.58841389     -0.15813088     -1.58495766
H      -0.76847628      0.84736811      1.29715386
H      -0.16753190     -1.40489746      2.05337898
H       0.69427944     -2.78861053      0.21969590
H       2.18894093     -1.47703212      1.29086029
H       1.68781311      0.14090767      1.76544479
H       1.72066406     -1.00946193     -2.44115747
H       3.52857827      1.14361573      0.49079818
H       5.38036213     -0.29470081      1.21337526
H       4.43801270     -1.76051198      0.82156223
H       6.21128128     -1.94777729     -0.87547901
H       3.41899424      2.68311291     -1.13997061
H       3.73579817      1.55205341     -2.44774302
H       1.45704991      1.17555734     -2.84554002
H       1.28288526      2.75155861     -2.06425703
H       1.03558316      1.78945163      0.09758533
