36
CCCCCCCCCCCO
C      -6.06755652      0.45628946     -0.39402933
C      -4.66816077     -0.05685243     -0.69853668
C      -3.59742455      0.89292087     -0.16001411
C      -2.17051669      0.48617625     -0.54305779
C      -1.71235430     -0.81585322      0.11939589
C      -0.28602275     -1.22368709     -0.26475446
C       0.78665286     -0.27331581      0.27204810
C       2.19233464     -0.79426808     -0.03692679
C       3.26741151      0.15554184      0.49512972
C       4.67296841     -0.36796075      0.18666703
C       5.76173631      0.54537373      0.73899844
O       5.70133473      1.82977629      0.13498130
H      -6.23683036      1.43380067     -0.85679958
H      -6.81872504     -0.23798366     -0.78351575
H      -6.22274677      0.55483768      0.68512042
H      -4.55662723     -1.05073360     -0.25278558
H      -4.55536232     -0.16996095     -1.78287823
H      -3.78223723      1.89913147     -0.55676783
H      -3.67943120      0.96492106      0.93138113
H      -2.09401655      0.39545938     -1.63325345
H      -1.50367111      1.30296355     -0.24522028
H      -2.38000743     -1.63236043     -0.17741644
H      -1.78780207     -0.72464562      1.20962440
H      -0.20524815     -1.29654856     -1.35615284
H      -0.10156755     -2.22955585      0.13291250
H       0.66801588     -0.15925639      1.35625341
H       0.66805694      0.71974728     -0.17500908
H       2.30998230     -0.91212241     -1.12103685
H       2.32391716     -1.78596444      0.41273633
H       3.13180588      1.14686045      0.04649895
H       3.14982989      0.27220338      1.57934030
H       4.78830164     -0.45417493     -0.90057496
H       4.79646372     -1.36985013      0.61376568
H       6.75183781      0.12118481      0.54397438
H       5.65475898      0.67084181      1.82096877
H       5.80089997      1.70706438     -0.82446643
