14
O=[N+]([O-])c1ccc(Cl)cc1
O       2.94400445      1.15494201     -0.09547689
N       2.38867915      0.06573945      0.10562441
O       2.98305336     -0.99182250      0.35756306
C       0.92164636      0.02536453      0.04075553
C       0.24890310     -1.18522581      0.26149132
C      -1.14735406     -1.21825173      0.19861224
C      -1.85980476     -0.05118481     -0.08224199
Cl     -3.57734484     -0.09845259     -0.15818132
C      -1.19050087      1.15390944     -0.30199481
C       0.20555935      1.19773283     -0.24139396
H       0.79147937     -2.10278675      0.48142266
H      -1.67293204     -2.15514876      0.36919807
H      -1.74961489      2.06095764     -0.52054328
H       0.71422634      2.14422705     -0.41483504
