99
CC(C)(C)CC(C)(C)c1cc(Cc2cc(C(C)(C)CC(C)(C)C)cc(-n3nc4ccccc4n3)c2O)c(O)c(-n2nc3ccccc3n2)c1
C      -5.67911414      1.96235979     -4.20580570
C      -6.07043276      1.83443961     -2.70945430
C      -6.39370782      3.24486345     -2.20325380
C      -7.33882838      0.96095554     -2.66161616
C      -4.85656070      1.16150662     -1.98540791
C      -4.66115514      1.08153769     -0.42298944
C      -5.97396660      0.65729828      0.26275690
C      -4.21802377      2.45154661      0.13807423
C      -3.52078588      0.08007750     -0.05069191
C      -2.57055813     -0.36024739     -0.98888908
C      -1.52512325     -1.24850420     -0.66080873
C      -0.54202949     -1.65230397     -1.74389697
C       0.81422620     -0.97741091     -1.65314503
C       1.92797473     -1.74086358     -1.24837698
C       3.21800128     -1.19249387     -1.14388492
C       4.45073539     -2.04351610     -0.72028635
C       5.65194884     -1.65842434     -1.62248873
C       4.20044866     -3.54790263     -0.95145913
C       4.71500900     -1.70136275      0.78669022
C       5.73599600     -2.47111121      1.68817878
C       5.22227666     -3.86418801      2.09883950
C       7.13024556     -2.61017295      1.06271451
C       5.88565911     -1.64915167      2.99228720
C       3.34975678      0.18693567     -1.39280718
C       2.25444436      0.97620617     -1.79300245
N       2.45776633      2.36497729     -2.01589418
N       3.66283247      2.95462660     -1.83287547
C       3.41668540      4.24559414     -2.09130223
C       4.29489818      5.34220057     -2.04258790
C       3.70603237      6.57678977     -2.37684284
C       2.34135129      6.71251717     -2.74299742
C       1.44352952      5.62740634     -2.79540639
C       2.01084406      4.38577024     -2.45926708
N       1.43278200      3.17701114     -2.40329449
C       0.99357419      0.38076774     -1.95078047
O      -0.10364779      1.06939477     -2.40001160
C      -1.41316500     -1.71098253      0.65543895
O      -0.40296084     -2.60100900      0.91580578
C      -2.31455258     -1.26257972      1.63242617
N      -2.20198659     -1.66068918      2.99298720
N      -3.06324183     -1.22376802      3.94367632
C      -2.58102381     -1.76580631      5.06910836
C      -3.05698981     -1.64646260      6.38750803
C      -2.30190000     -2.34810821      7.34713013
C      -1.15056197     -3.11398476      7.02263994
C      -0.65989684     -3.25154986      5.70755989
C      -1.40186129     -2.55989192      4.73312913
N      -1.20372514     -2.49053439      3.40808944
C      -3.35242095     -0.37612878      1.27181871
H      -6.49057320      2.40230978     -4.79763163
H      -5.44738038      0.98275260     -4.63989775
H      -4.79697283      2.60180023     -4.33268005
H      -7.13689720      3.73195584     -2.84553849
H      -5.50166829      3.87985760     -2.20236898
H      -6.81515931      3.23233884     -1.19422956
H      -7.12345312     -0.07005475     -2.96094380
H      -8.10302463      1.34458564     -3.34802225
H      -7.79934682      0.93431667     -1.67267259
H      -4.82628561      0.13335750     -2.37124342
H      -3.95509353      1.64941949     -2.38284697
H      -6.31246415     -0.31649158     -0.10724235
H      -6.76523398      1.39271556      0.10192659
H      -5.88460713      0.58089637      1.35060475
H      -3.31616231      2.81703719     -0.36665651
H      -4.99196943      3.21373972      0.03316199
H      -3.98274550      2.39708304      1.20875457
H      -2.59992600     -0.00350797     -2.01650407
H      -0.96477859     -1.44758062     -2.73718118
H      -0.42829241     -2.74526586     -1.72009241
H       1.75367277     -2.78723898     -1.00639030
H       6.46896750     -2.38158293     -1.56332025
H       6.07111651     -0.68197306     -1.35979485
H       5.35578578     -1.61826021     -2.67684417
H       5.11847703     -4.13113281     -0.83838368
H       3.83635615     -3.74234928     -1.96817550
H       3.46207685     -3.95040073     -0.25047996
H       4.99999318     -0.63822325      0.82258975
H       3.74673518     -1.74796021      1.31051453
H       5.84299097     -4.29078369      2.89605147
H       5.24244623     -4.58088642      1.27447303
H       4.19554804     -3.81319138      2.47839678
H       7.49381034     -1.64731274      0.68739319
H       7.13488306     -3.33407125      0.24194766
H       7.85832571     -2.96916845      1.80083269
H       6.28702756     -0.64811532      2.78878150
H       4.91852584     -1.52895655      3.49677588
H       6.56740449     -2.13706804      3.69958871
H       4.32222430      0.65884644     -1.26597215
H       5.33365644      5.23924554     -1.76476809
H       4.32837073      7.47185677     -2.35838699
H       1.96909264      7.70670281     -2.99015799
H       0.40518516      5.73733873     -3.07557584
H       0.13708050      2.01937220     -2.48180355
H      -0.39566690     -2.78974776      1.87841072
H      -3.93082512     -1.05952544      6.64021138
H      -2.61329795     -2.29553586      8.39162593
H      -0.62047309     -3.62074910      7.83070558
H       0.21823107     -3.83459289      5.46406288
H      -4.02448449     -0.02143528      2.05166124
