66
CCCC(c1cc(C(C)(C)C)c(O)cc1C)c1cc(C(C)(C)C)c(O)cc1C
C       1.16636957      4.60221316     -0.05859812
C       1.05018921      3.52236663      1.00633403
C      -0.15228944      2.58852025      0.81029220
C      -0.15602826      1.77152701     -0.51068814
C      -1.51554189      1.06189687     -0.65100511
C      -1.73025700     -0.17828821     -0.00392491
C      -2.94429156     -0.89231180     -0.07415037
C      -3.11643964     -2.25323962      0.63620389
C      -1.85167229     -2.72373368      1.40159000
C      -4.24911584     -2.17344316      1.68361333
C      -3.43205975     -3.36125062     -0.39325571
C      -3.96847572     -0.29541985     -0.82328188
O      -5.17963073     -0.91971867     -0.94444430
C      -3.79492210      0.93924164     -1.45845902
C      -2.58056518      1.63475280     -1.37393710
C      -2.46402063      2.96194432     -2.07375589
C       1.04340519      0.83158506     -0.73595266
C       1.69922924      0.22072480      0.36051734
C       2.78636686     -0.66850441      0.22418423
C       3.45828790     -1.31232872      1.45742083
C       4.94964979     -0.91529628      1.52763858
C       3.32685475     -2.85064585      1.39812474
C       2.83232933     -0.87815623      2.80838643
C       3.20568888     -0.93427404     -1.08668603
O       4.25370688     -1.78412522     -1.31076807
C       2.57555354     -0.35633137     -2.19294310
C       1.49231906      0.52011233     -2.03590881
C       0.84918641      1.08847723     -3.27247008
H       1.95774393      5.30951084      0.20987136
H       0.23090772      5.16194571     -0.15619537
H       1.42190467      4.17857190     -1.03413989
H       0.94387574      4.01149012      1.98242643
H       1.98455873      2.95371741      1.04826214
H      -0.22446740      1.92083737      1.67798638
H      -1.06132885      3.20471729      0.85137797
H      -0.08825307      2.51604068     -1.30862911
H      -0.90538782     -0.58964123      0.56911275
H      -0.99461748     -2.84939742      0.72930258
H      -2.02048057     -3.69286405      1.88691077
H      -1.57013327     -2.01736332      2.19145818
H      -4.06271066     -1.36749914      2.40332944
H      -4.33147237     -3.11026250      2.24752892
H      -5.23028792     -1.99251473      1.23560821
H      -2.65873758     -3.40849412     -1.16918160
H      -3.48005664     -4.34512142      0.08854667
H      -4.39226727     -3.21404089     -0.89564048
H      -5.76410526     -0.37791514     -1.49740555
H      -4.61419517      1.37350731     -2.02571291
H      -2.12431496      3.73661342     -1.37942694
H      -3.42913202      3.29309307     -2.47235270
H      -1.76774117      2.88869172     -2.91457384
H       1.32690576      0.44529078      1.35454578
H       5.06619004      0.17498409      1.53040255
H       5.53386713     -1.30552580      0.68955509
H       5.41813142     -1.30200963      2.44055643
H       2.27615198     -3.15206222      1.31032620
H       3.86594940     -3.29123716      0.55469648
H       3.73166188     -3.31624633      2.30463078
H       3.34265758     -1.35688968      3.65316736
H       2.91063605      0.20473060      2.96113156
H       1.77503185     -1.16109865      2.87414557
H       4.39342743     -1.87219608     -2.26680905
H       2.92290684     -0.59202148     -3.19562958
H       0.94441302      2.17851843     -3.28786956
H       1.32490370      0.71063920     -4.18412131
H      -0.20596199      0.80520665     -3.32126803
