47
C[C@]12CC[C@H]3[C@@H](CCC4=CC(=O)CC[C@@]43C)[C@@H]1CCC2=O
C      -2.95619562     -1.48783103     -0.01879199
C      -2.67013083     -0.00705072     -0.32946824
C      -2.01983624      0.15759485     -1.69890217
C      -0.58064074     -0.39020939     -1.69502788
C       0.30519136      0.17328955     -0.54744212
C      -0.41327234      0.10156467      0.83907249
C       0.43080364      0.80800896      1.90647421
C       1.81986849      0.19076954      2.00755872
C       2.53211749      0.17115571      0.67548593
C       3.78911509      0.64239567      0.58928369
C       4.57997922      0.53620100     -0.65812857
O       5.71196693      1.01151232     -0.69815117
C       3.98816888     -0.23576259     -1.80690724
C       2.47760318     -0.05499478     -1.84668324
C       1.76405530     -0.42498282     -0.51224831
C       1.75595120     -1.96243776     -0.35781960
C      -1.79722368      0.74123704      0.69809512
C      -2.69861454      0.88357814      1.91982767
C      -4.03799693      1.31622447      1.30459143
C      -3.97030100      0.74229971     -0.10057008
O      -4.86600332      0.85138788     -0.92712594
H      -3.48199760     -1.62113882      0.93278193
H      -2.04946817     -2.09709052      0.02038079
H      -3.60478535     -1.91798407     -0.79168817
H      -2.60691796     -0.35406492     -2.47130976
H      -2.00319018      1.21692725     -1.98677824
H      -0.62255594     -1.48246297     -1.63594430
H      -0.13189882     -0.15098787     -2.66542714
H       0.41743581      1.24751766     -0.76897023
H      -0.52843781     -0.94423808      1.14427300
H       0.51712254      1.87739042      1.67414157
H      -0.05795428      0.73346654      2.88481124
H       1.73785651     -0.83734365      2.38136921
H       2.39666288      0.74522249      2.75806052
H       4.31671272      1.07212332      1.43403444
H       4.41981126      0.14389940     -2.73960434
H       4.26873900     -1.28872546     -1.70497435
H       2.07926804     -0.65095663     -2.67653682
H       2.26993085      0.99614060     -2.09188761
H       1.14832664     -2.29095098      0.49105732
H       1.36360210     -2.45597510     -1.25308737
H       2.76639165     -2.35562097     -0.19522170
H      -1.63282624      1.77075944      0.33463305
H      -2.80060336     -0.06384656      2.45998927
H      -2.33318953      1.63341284      2.62830230
H      -4.88578465      0.90477954      1.85640036
H      -4.10685567      2.40579667      1.23807228
