31
CNC(=O)Oc1ccc(N(C)C)c(C)c1
C       5.43631776     -0.60720921      1.82230721
N       4.43087825      0.21838466      1.21199743
C       3.13153360     -0.19302053      1.09107501
O       2.68384805     -1.22495861      1.57139083
O       2.43269361      0.73512462      0.33478001
C       1.07469037      0.45715640      0.13715365
C       0.18000095      0.45676772      1.20117888
C      -1.17367627      0.22658724      0.95175852
C      -1.64739533      0.01794588     -0.35685980
N      -3.01107215     -0.24212506     -0.62861322
C      -3.93019050      0.72887019     -0.03335463
C      -3.34284376     -1.63990495     -0.33647761
C      -0.72538191      0.04408140     -1.42805936
C      -1.18439967     -0.16692290     -2.84523631
C       0.63608755      0.27010395     -1.17098487
H       5.02613317     -1.13291051      2.68869545
H       6.26874975      0.02906679      2.13122778
H       5.78291492     -1.33667129      1.08560692
H       4.69685711      1.01874430      0.65579086
H       0.52584200      0.61711519      2.21737229
H      -1.85658925      0.19576188      1.79538945
H      -4.01089824      0.61449878      1.05328368
H      -4.93101182      0.59058180     -0.45723879
H      -3.62232281      1.75526420     -0.26384000
H      -2.67788860     -2.32708751     -0.87230632
H      -3.28504962     -1.85680924      0.73662339
H      -4.36398922     -1.85482417     -0.67029875
H      -1.96653668      0.55370459     -3.10548678
H      -0.36369011     -0.02787192     -3.55706828
H      -1.56683750     -1.18435693     -2.97365953
H       1.35322634      0.29856134     -1.98614712
