15
CCCCO
C      -2.19526197     -0.04640617      0.12837094
C      -0.83725854      0.34695943     -0.43056707
C       0.30011962     -0.28554558      0.36628367
C       1.66164954      0.10593574     -0.19027955
O       2.67315163     -0.51296292      0.59253448
H      -2.33446145     -1.13165481      0.09353623
H      -2.99505684      0.41759130     -0.45725289
H      -2.30151048      0.28076454      1.16761297
H      -0.77590899      0.03437493     -1.47948060
H      -0.74314061      1.43896009     -0.41135376
H       0.23853071      0.01438834      1.41995240
H       0.20603078     -1.37874571      0.36053083
H       1.77061339     -0.22804408     -1.22703499
H       1.80370822      1.19052367     -0.14826727
H       3.52879498     -0.24613874      0.21541463
