24
CN(C)C(=O)Nc1ccc(Cl)c(Cl)c1
C      -3.44143066      0.05746170     -1.41591361
N      -2.43336380      0.11727228     -0.36971876
C      -2.92548396     -0.13007167      0.97991877
C      -1.10727871     -0.08788744     -0.76204323
O      -0.81412170     -0.37791422     -1.91880538
N      -0.19106194      0.10269922      0.24938504
C       1.19015256     -0.17686063      0.21319300
C       1.79376046     -0.96355778     -0.76994610
C       3.17023464     -1.21356638     -0.73485643
C       3.95645385     -0.68526878      0.28979059
Cl      5.64744453     -1.03463254      0.27343514
C       3.35851999      0.09330150      1.28425557
Cl      4.25935491      0.77714815      2.59191162
C       1.98067669      0.34194571      1.24574885
H      -4.30823252      0.65525933     -1.11942065
H      -3.74097555     -0.98498501     -1.56060533
H      -3.05210111      0.45155750     -2.35937907
H      -3.38260544     -1.12452310      1.00399890
H      -2.14092598     -0.10436609      1.73728000
H      -3.68001782      0.62340617      1.22362811
H      -0.50446316      0.72038690      0.98214737
H       1.21589979     -1.40521414     -1.57775966
H       3.61777998     -1.82572865     -1.51458717
H       1.53178496      0.94832539      2.02834242
