11
CC(C)Cl
C      -1.28559833      0.06235693      0.04911579
C       0.15416684      0.31832400      0.47003250
C       1.13737011     -0.46080816     -0.39129112
Cl      0.50994166      2.06528953      0.35214452
H      -1.53027787     -1.00133248      0.13995204
H      -1.46018578      0.35896299     -0.99103284
H      -1.98491178      0.61872491      0.68257021
H       0.28449692      0.03786765      1.52022116
H       2.16931233     -0.27825223     -0.07251488
H       0.95107756     -1.53710490     -0.31106734
H       1.05460833     -0.18402822     -1.44813004
