29
CCCCCOC(=O)CCC
C      -3.80935269      1.70868997      2.10143291
C      -3.47283490      0.29894737      1.64012041
C      -2.37442176      0.30318323      0.57569811
C      -2.03436856     -1.12148888      0.12567274
C      -0.96253444     -1.14849821     -0.96139971
O       0.25283548     -0.59877266     -0.43628753
C       1.32201897     -0.69728256     -1.27622153
O       1.29716908     -1.20283325     -2.38889421
C       2.53192659     -0.07447947     -0.61926319
C       3.79078494     -0.24078045     -1.46684818
C       4.99943376      0.39444228     -0.79980207
H      -2.93455877      2.19569079      2.54327131
H      -4.15914375      2.32338695      1.26477622
H      -4.60140811      1.68051292      2.85722593
H      -3.15215576     -0.29600507      2.50417683
H      -4.37722931     -0.17290746      1.23921294
H      -1.47916801      0.79158174      0.97847075
H      -2.70320098      0.89337844     -0.28890078
H      -1.68076114     -1.69154292      0.99396872
H      -2.93715143     -1.61627496     -0.25110314
H      -0.79485267     -2.18725775     -1.27233630
H      -1.28400615     -0.55824452     -1.82807231
H       2.32442358      0.99055384     -0.46694334
H       2.67821473     -0.55276186      0.35617134
H       3.64115140      0.21558224     -2.45296085
H       3.98869669     -1.30586999     -1.63863113
H       4.84263331      1.46671126     -0.64317422
H       5.20098952     -0.06760438      0.17133051
H       5.88687037      0.26994335     -1.42744261
