14
NC(=O)c1cnccn1
N      -2.47832065      0.70484115     -0.19618113
C      -1.72130337     -0.37582614     -0.56130880
O      -2.21943657     -1.38048018     -1.05160745
C      -0.25860274     -0.24296786     -0.32115291
C       0.59533290     -1.28265096     -0.65666199
N       1.93683101     -1.20859331     -0.45675165
C       2.37692404     -0.05180314      0.09103854
C       1.52152016      0.98790482      0.42637244
N       0.18346241      0.92548002      0.23184755
H      -3.47867965      0.68358342     -0.33079643
H      -2.03097101      1.52061402      0.20731594
H       0.22928376     -2.20495196     -1.09531482
H       3.44667906      0.01868988      0.25532186
H       1.89728065      1.90616025      0.86451966
