36
O=C([O-])CN(CCN(CC(=O)[O-])CC(=O)[O-])CC(=O)[O-].[Na+].[Na+].[Na+].[Na+]
O      -3.28198144     -2.34323404      1.47538663
C      -3.19918171     -1.09644438      1.72945720
O      -3.28132232     -0.54537095      2.87104735
C      -3.14552493     -0.16181403      0.47136194
N      -1.87049620      0.62083799      0.28648534
C      -0.70987179     -0.32156447      0.11865696
C       0.70977546      0.32131148     -0.11878436
N       1.87041177     -0.62108212     -0.28641567
C       1.99947698     -1.50033803      0.93339349
C       3.26940922     -2.42659152      0.98226242
O       4.22855364     -2.01115400      1.71403285
O       3.19416500     -3.55050378      0.39356578
C       3.14536237      0.16154791     -0.47182204
C       3.19880768      1.09566947     -1.73031385
O       3.27951294      0.54414477     -2.87180040
O       3.28279814      2.34248748     -1.47670528
C      -1.99940453      1.50057738     -0.93298607
C      -3.26883582      2.42757231     -0.98111421
O      -4.22854852      2.01288167     -1.71253203
O      -3.19266043      3.55129981     -0.39219145
Na      0.00000000      0.00000000      0.00000000
Na      0.00000000      0.00000000      0.00000000
Na      0.00000000      0.00000000      0.00000000
Na      0.00000000      0.00000000      0.00000000
H      -3.35629581     -0.75586984     -0.42719663
H      -3.98094655      0.53425166      0.61062914
H      -0.64925484     -0.91419851      1.03696533
H      -0.91451970     -1.01521966     -0.70746429
H       0.91437604      1.01511031      0.70722159
H       0.64918505      0.91379539     -1.03718930
H       1.13657444     -2.17420979      0.97863035
H       1.99153448     -0.88530710      1.84256857
H       3.35623512      0.75600719      0.42644753
H       3.98082079     -0.53450798     -0.61095315
H      -1.99198690      0.88588634     -1.84239558
H      -1.13616763      2.17402902     -0.97824820
