13
CC(C)N
C      -0.30059750      1.36084425     -0.06014080
C      -0.09900857     -0.12975111     -0.31241557
C       1.22315978     -0.61121421      0.27598856
N      -1.20232102     -0.88073833      0.28315759
H       0.51122842      1.94176907     -0.51102927
H      -0.32181222      1.58911165      1.01154015
H      -1.24178375      1.71038292     -0.49893451
H      -0.09317729     -0.30952752     -1.39359150
H       2.06397201     -0.06780424     -0.16850649
H       1.37636130     -1.67804119      0.07860928
H       1.26086349     -0.45919796      1.36066637
H      -1.09398303     -1.87284904      0.07640312
H      -2.08290162     -0.59298429     -0.14174692
