64
CC(=O)N1CCN(c2ccc(OC[C@H]3CO[C@](Cn4ccnc4)(c4ccc(Cl)cc4Cl)O3)cc2)CC1
C       9.31155097      0.28599941      0.80561603
C       8.35619162     -0.86708100      0.63935482
O       8.78623331     -2.00440795      0.44693322
N       7.00086711     -0.58205633      0.72466644
C       6.04849657     -1.66617051      0.45295377
C       5.52068376     -1.57001639     -0.99384239
N       4.95841714     -0.22275142     -1.27372368
C       3.60351595      0.04030086     -1.06588707
C       2.74362872     -0.82050659     -0.36932375
C       1.38001952     -0.53153304     -0.19031662
C       0.83150420      0.62930069     -0.72332647
O      -0.47242069      1.02667750     -0.62953352
C      -1.36059642      0.16613090      0.08133347
C      -2.76499802      0.75162330      0.01951727
C      -3.32898347      0.80457362     -1.37704326
O      -4.74401325      0.83212251     -1.17325800
C      -4.97481905      0.18860282      0.10256451
C      -5.75319828     -1.12738402     -0.13279474
N      -5.01598392     -2.10280498     -0.91711952
C      -5.18003099     -2.37425186     -2.24510518
C      -4.26341078     -3.36202733     -2.51856987
N      -3.56180333     -3.70070094     -1.39138576
C      -4.04896983     -2.94020527     -0.43924267
C      -5.79879992      1.12934970      0.99627559
C      -6.45850221      2.23811200      0.41881158
C      -7.22629882      3.11704565      1.18793759
C      -7.35626515      2.90329427      2.55321209
Cl     -8.30153655      3.98114382      3.50281625
C      -6.73043797      1.81734507      3.15367399
C      -5.96048475      0.93439246      2.38435510
Cl     -5.25734729     -0.39584282      3.23974428
O      -3.70231090     -0.06657167      0.72291513
C       1.65879503      1.48977659     -1.43789061
C       3.01741684      1.19454211     -1.60959096
C       5.91223261      0.87460308     -0.96056293
C       6.43028213      0.75319385      0.49142655
H       9.07399386      0.85261057      1.71052134
H       9.27584290      0.93138516     -0.07570041
H      10.33032957     -0.10170581      0.91070479
H       5.23061269     -1.56266467      1.17410380
H       6.50916323     -2.64507266      0.61933810
H       6.35866531     -1.72570446     -1.68559090
H       4.80344629     -2.36936871     -1.21035868
H       3.10828749     -1.74323225      0.07057681
H       0.78301054     -1.24567983      0.36766064
H      -1.05399368      0.08334119      1.13164613
H      -1.36661868     -0.84023647     -0.35674816
H      -2.78199814      1.75328606      0.46736184
H      -3.08761135     -0.08849490     -1.96255768
H      -3.01148757      1.68834862     -1.93714142
H      -6.00905821     -1.63288997      0.80334456
H      -6.68941586     -0.93022200     -0.66901212
H      -5.89638758     -1.85734367     -2.86718731
H      -4.07172934     -3.84718451     -3.46565788
H      -3.73432499     -2.94592326      0.59572236
H      -6.38107803      2.43436793     -0.65041868
H      -7.71661287      3.96296060      0.71191977
H      -6.84325605      1.65466760      4.22271616
H       1.24837193      2.39296369     -1.88151432
H       3.60958509      1.87303852     -2.21863793
H       5.48953460      1.87275903     -1.11162805
H       6.75965900      0.78941019     -1.65262475
H       5.60464815      0.88118224      1.20107218
H       7.15979781      1.54158368      0.68769168
