37
O=C([O-])c1ccccc1-c1c2ccc(=O)cc-2oc2cc([O-])ccc12.[Na+].[Na+]
O      -2.33625535      1.29418209     -3.19712820
C      -1.80375286      0.36992040     -2.50120064
O      -1.03328656     -0.53653218     -2.94461763
C      -2.24027264      0.28259611     -1.05783756
C      -3.62508251      0.40775693     -0.80109046
C      -4.14724047      0.31076762      0.48852943
C      -3.29238427      0.08817894      1.55852771
C      -1.92045432     -0.02586932      1.33218433
C      -1.37113668      0.07491634      0.03284787
C       0.12230034     -0.00945305     -0.03478607
C       0.73928202     -1.19056525     -0.31713579
C      -0.01275616     -2.39281381     -0.70548615
C       0.59260769     -3.55240931     -0.99086943
C       2.06109061     -3.67155829     -0.89896064
O       2.62509412     -4.74062455     -1.11563002
C       2.82393391     -2.47120461     -0.50667547
C       2.20451081     -1.31604759     -0.22843170
O       2.98003282     -0.24779251      0.19728656
C       2.36671821      0.93173027      0.53008602
C       3.20121790      1.94783279      1.03331967
C       2.72667044      3.21070423      1.42961040
O       3.48224078      4.11624458      1.91693894
C       1.34497551      3.38578001      1.23665672
C       0.49644928      2.38035153      0.73202407
C       0.99687703      1.11980019      0.39652505
Na      0.00000000      0.00000000      0.00000000
Na      0.00000000      0.00000000      0.00000000
H      -4.29335612      0.58877821     -1.64269163
H      -5.21504776      0.41701089      0.64724198
H      -3.68156291      0.01991783      2.56882394
H      -1.25679904     -0.17440333      2.18255516
H      -1.08841458     -2.32554200     -0.83227036
H       0.04243436     -4.42310725     -1.31797714
H       3.89740344     -2.57369921     -0.43425001
H       4.26608159      1.74531654      1.13104171
H       0.90611562      4.34853248      1.49548170
H      -0.55823423      2.61130429      0.61735763
