11
CCC
C       1.23211078      0.20812055     -0.27094239
C       0.05356645     -0.38533495      0.48219278
C      -1.27253524      0.08267647     -0.09294974
H       1.22096922      1.30151613     -0.21830165
H       2.17423352     -0.14325050      0.16130805
H       1.21174476     -0.08519525     -1.32543762
H       0.11430214     -0.09965836      1.53818015
H       0.10512643     -1.47882230      0.43706850
H      -1.36283764      1.17210749     -0.03468338
H      -2.10461519     -0.35755483      0.46538456
H      -1.37206524     -0.21460444     -1.14181925
