30
c1ccc2cc3c(ccc4ccccc43)cc2c1
C       4.71083518     -0.50458642     -0.56720843
C       4.45422877      0.84340588     -0.79508615
C       3.14363160      1.32073731     -0.74291161
C       2.07197653      0.45554171     -0.46196869
C       0.74345295      0.91814301     -0.40504431
C      -0.35873406      0.06973059     -0.12395488
C      -0.06439495     -1.29693286      0.10335762
C      -1.09674181     -2.19529504      0.38630085
C      -2.41958661     -1.76745423      0.44920054
C      -2.74943378     -0.42802835      0.23093103
C      -4.09503128     -0.02828982      0.30164027
C      -4.46327447      1.29735267      0.09016561
C      -3.48770948      2.23978352     -0.19496903
C      -2.14556182      1.85403181     -0.26796360
C      -1.72910702      0.51422951     -0.05904194
C       1.26050639     -1.76398833      0.04766747
C       2.33303085     -0.90652991     -0.23190407
C       3.65686361     -1.37514487     -0.28718093
H       5.72994725     -0.87990294     -0.60699339
H       5.27231663      1.52466846     -1.01349643
H       2.96310574      2.37800019     -0.92390165
H       0.57580829      1.97606558     -0.58757362
H      -0.88218691     -3.24737805      0.56258955
H      -3.19357174     -2.49881826      0.67231452
H      -4.87394056     -0.75485472      0.52437920
H      -5.50792483      1.59002230      0.14841899
H      -3.76361650      3.27769324     -0.36188340
H      -1.42328577      2.63283807     -0.49444896
H       1.46257018     -2.81905627      0.22587609
H       3.87582762     -2.42598376     -0.11159617
