24
CC(C)(C#N)N=NC(C)(C)C#N
C       2.35816859     -1.20336458      0.31392487
C       1.87408528      0.15571280     -0.19822208
C       2.04811744      1.24764552      0.86224266
C       2.62967206      0.52772653     -1.41504783
N       3.23811517      0.82877383     -2.35783846
N       0.45785241      0.06081123     -0.62716797
N      -0.35546588     -0.15576698      0.29972825
C      -1.76846100     -0.30066375     -0.13363951
C      -2.62083009     -0.29628821      1.14059896
C      -2.19522569      0.85598236     -1.04218361
C      -1.91350999     -1.60224736     -0.82056557
N      -2.04469952     -2.62703781     -1.35180154
H       2.20557062     -1.98825129     -0.43673325
H       1.81842169     -1.50732379      1.21785679
H       3.42723520     -1.18024540      0.55562686
H       3.10537527      1.39268791      1.11377767
H       1.65711299      2.20970272      0.50956634
H       1.51866287      0.99905743      1.78888961
H      -2.50498911      0.64563791      1.68926487
H      -2.32670636     -1.10594793      1.81976220
H      -3.68500985     -0.42771540      0.91249983
H      -3.25989565      0.78915301     -1.29535464
H      -1.64116257      0.85862502     -1.98834987
H      -2.02243391      1.82333623     -0.55683459
