14
CC(C)CCl
C      -0.40953459      1.37044859      0.29925604
C       0.05625752      0.09703372     -0.40846808
C       1.41003782     -0.35744049      0.13939430
C      -0.99802391     -1.01755399     -0.36129621
Cl     -1.38064567     -1.57291453      1.28635387
H      -0.50778461      1.22621517      1.37992416
H      -1.37799950      1.70028771     -0.09113520
H       0.30786024      2.18250276      0.13815981
H       0.20250334      0.34899508     -1.46723670
H       1.37068140     -0.55760105      1.21488893
H       1.74809195     -1.26828514     -0.36578512
H       2.16889713      0.41524002     -0.02534317
H      -1.93486207     -0.67600516     -0.81315586
H      -0.65547906     -1.89092268     -0.92555677
