26
CC1=CC[C@H]2C[C@@H]1C2(C)C
C       2.63245008     -1.23534101      0.05197801
C       1.53140773     -0.23001912      0.08630172
C       1.51623536      0.88429610      0.84584631
C       0.33016657      1.82750956      0.81633597
C      -0.72469507      1.28795772     -0.17352588
C      -0.03700747      0.90888419     -1.52726313
C       0.32475954     -0.43561299     -0.79580967
C      -1.06644007     -0.26092713     -0.03584297
C      -2.30047211     -0.73164173     -0.83127707
C      -1.19128979     -0.83219464      1.38275497
H       2.25609350     -2.21983166      0.34729831
H       3.44776571     -0.96816580      0.73198787
H       3.04685877     -1.31097607     -0.95824068
H       2.34155615      1.12528751      1.50907661
H      -0.10030225      1.91542309      1.81931454
H       0.66361247      2.82325613      0.50426300
H      -1.58937798      1.95341710     -0.26249903
H      -0.70279852      0.81404156     -2.39090591
H       0.79947643      1.54110936     -1.84617553
H       0.40613430     -1.31216612     -1.44575880
H      -3.22102555     -0.37272702     -0.35743482
H      -2.31563373     -0.38203822     -1.86623302
H      -2.34061472     -1.82629388     -0.86212471
H      -1.22022686     -1.92726605      1.35418598
H      -0.37096372     -0.55275378      2.04702730
H      -2.11566877     -0.48322710      1.85672061
