12
Fc1ccccc1
F      -1.69895949     -2.09858547      0.04104531
C      -0.85614870     -1.05753011      0.02068325
C       0.51542036     -1.28722506      0.01290644
C       1.39309042     -0.20361259     -0.00828942
C       0.89004376      1.09939801     -0.02150154
C      -0.48918864      1.32012833     -0.01354653
C      -1.36636847      0.23611897      0.00765101
H       0.88976045     -2.30559890      0.02337965
H       2.46677148     -0.37287494     -0.01451765
H       1.57425427      1.94454708     -0.03803175
H      -0.87827948      2.33500836     -0.02385860
H      -2.44039596      0.39022633      0.01407984
