19
Cc1ccc(CO)cc1
C      -3.03799874      0.31405348      0.01017974
C      -1.55663514      0.08250567      0.05387487
C      -0.90811146     -0.56127925     -1.00580510
C       0.47570876     -0.74981145     -0.98011036
C       1.23445506     -0.29591414      0.10576666
C       2.72898931     -0.46793265      0.11744629
O       3.36627142      0.64224601     -0.50028388
C       0.58820674      0.37243247      1.15291724
C      -0.79565558      0.56054382      1.12642045
H      -3.54270270     -0.48822847     -0.53831229
H      -3.46049613      0.33183763      1.02033056
H      -3.25324328      1.26821733     -0.48049196
H      -1.47725946     -0.91994535     -1.86071005
H       0.95963675     -1.25064841     -1.81622784
H       3.02026102     -1.37874608     -0.41625402
H       3.10249727     -0.55839791      1.14290401
H       2.67169882      1.25944254     -0.78836250
H       1.16067692      0.75486569      1.99561522
H      -1.27629956      1.08475906      1.94959235
