66
OC[C@H]1O[C@@](CO)(O[C@H]2O[C@H](CO[C@H]3O[C@H](CO)[C@H](O)[C@H](O)[C@H]3O)[C@@H](O)[C@H](O)[C@H]2O)[C@@H](O)[C@@H]1O
O      -0.84224349     -2.15173416     -0.52593764
C      -1.90165820     -2.55560676      0.33167748
C      -3.23629622     -1.89788831     -0.01770904
O      -3.23431559     -0.49305197      0.33591252
C      -3.74988823      0.23592114     -0.79894448
C      -4.67161798      1.40247453     -0.37881436
O      -5.05621170      2.22089297     -1.48388547
O      -2.67525588      0.69870004     -1.62989490
C      -1.72030815      1.51869792     -0.96375227
O      -0.49222864      0.80254279     -0.88400066
C       0.55100909      1.51336621     -0.18656489
C       0.71040874      0.92158157      1.21952990
O       0.95582403     -0.48528849      1.13751502
C       2.35459969     -0.81129052      1.11656240
O       2.88676675     -0.58690296      2.42560795
C       4.26038896     -0.97871973      2.58696452
C       5.20496314      0.02855364      1.91071168
O       4.96606562      1.33789739      2.43952351
C       4.47908067     -2.45145645      2.20116069
O       5.87221946     -2.79628738      2.23111051
C       3.92112257     -2.77341475      0.81045499
O       4.74913279     -2.18364375     -0.19868872
C       2.48181971     -2.28953682      0.67595699
O       1.64223072     -3.13493128      1.48296542
C       0.33446453      3.03403581     -0.12630321
O       1.55601051      3.70594395      0.17702698
C      -0.21393471      3.50860942     -1.47011460
O      -0.39482592      4.93409459     -1.41763815
C      -1.54071993      2.81154294     -1.79652139
O      -1.54672765      2.53276626     -3.21136534
C      -4.55305370     -0.80744412     -1.59731631
O      -4.86587700     -0.42796952     -2.93354696
C      -3.62092381     -1.99724624     -1.49751062
O      -4.31064190     -3.19621948     -1.82644143
H      -0.68698342     -1.19052350     -0.37848753
H      -1.98933912     -3.64179244      0.23673285
H      -1.60938506     -2.32375306      1.35793370
H      -4.00508200     -2.37355913      0.60256314
H      -4.18344530      2.04983731      0.35382232
H      -5.57879258      1.02409861      0.10760111
H      -5.17602128      1.63206924     -2.25882363
H      -2.03736118      1.77261142      0.05378757
H       1.46745567      1.30157397     -0.74720375
H      -0.23102196      1.03015356      1.76821589
H       1.49119780      1.43335524      1.79496394
H       2.86687924     -0.16511161      0.39341757
H       4.45584097     -0.89166921      3.66460520
H       6.25193310     -0.21623844      2.10291633
H       5.06044841      0.09117837      0.83293927
H       3.99804983      1.44801839      2.46269378
H       3.94945077     -3.07488594      2.93446236
H       5.94501337     -3.64989690      2.69517505
H       3.97129679     -3.85675268      0.65287964
H       5.66771283     -2.42245228      0.04552361
H       2.14539849     -2.38887298     -0.36596031
H       0.75204598     -3.05865835      1.08109324
H      -0.37363133      3.30197904      0.66879295
H       1.37245737      4.65116637      0.00288822
H       0.53423656      3.33569529     -2.25488211
H      -0.76173726      5.19333746     -2.28750660
H      -2.40324672      3.47015548     -1.63041198
H      -2.14599959      1.76573891     -3.31929706
H      -5.50018613     -1.04857248     -1.09852106
H      -5.14129700     -1.26212983     -3.37141017
H      -2.77317446     -1.88078714     -2.18483730
H      -3.63209108     -3.86561723     -2.05339638
