36
NCCNCCNCCNCCN
N       4.38471937      1.14260430     -2.55358988
C       4.33209564      0.74797574     -1.14048267
C       3.43360048     -0.48403902     -0.90240650
N       2.15589882     -0.36186148     -1.62447455
C       1.31034349     -1.55944235     -1.45630103
C       0.64687199     -1.65647241     -0.06471541
N      -0.03868884     -0.39963112      0.25966545
C      -0.34936560     -0.30532801      1.69098844
C      -1.04708334      1.03483389      2.01813273
N      -2.09757888      1.39379295      1.05203033
C      -3.34476646      0.66840504      1.31040507
C      -4.41210577      1.02751059      0.25770728
N      -5.67742041      0.32332614      0.48238395
H       4.99536049      1.95422699     -2.64356099
H       3.45437922      1.47722801     -2.81152133
H       3.95259603      1.59497166     -0.55708727
H       5.34535261      0.53070217     -0.78636902
H       3.26720132     -0.58549212      0.17514606
H       3.96597969     -1.37807633     -1.25002426
H       2.39562067     -0.28623088     -2.61633833
H       1.87755408     -2.47312355     -1.66993260
H       0.51427736     -1.50400605     -2.20933831
H      -0.07308859     -2.48231034     -0.06168644
H       1.41799092     -1.88277596      0.68102266
H       0.58655681      0.36389453     -0.02040518
H      -1.00815569     -1.13381428      1.97593348
H       0.56475219     -0.38010652      2.29166585
H      -0.29169088      1.82908118      1.97435016
H      -1.42998949      1.02957028      3.04529187
H      -1.74372228      1.09603447      0.13433506
H      -3.72273057      0.92961355      2.30635203
H      -3.17334232     -0.41428817      1.28881532
H      -4.60549126      2.10615552      0.27189591
H      -4.04879189      0.77633339     -0.74533595
H      -6.02977007      0.55754502      1.40965344
H      -5.50736883     -0.68134595      0.48779464
