50
CCOC(=O)N1CCC(=C2c3ccc(Cl)cc3CCc3cccnc32)CC1
C       6.59730810     -0.46558562     -1.33151545
C       6.24903436     -0.49886842      0.14479472
O       4.82808308     -0.59195411      0.31626578
C       4.14703510      0.58673165      0.32218605
O       4.68301217      1.68096686      0.18703237
N       2.78139278      0.41108753      0.49716864
C       1.91946651      1.57189064      0.27310903
C       0.56673321      1.46027086      0.98501575
C      -0.10116168      0.13560279      0.64376769
C      -1.31572906     -0.01094243      0.04876698
C      -2.13289321      1.18782880     -0.25171758
C      -1.80441189      2.04626016     -1.30961632
C      -2.59728633      3.16313137     -1.57658135
C      -3.72394826      3.41310421     -0.79540190
Cl     -4.70229367      4.78982824     -1.12647053
C      -4.07397423      2.55161817      0.24523001
C      -3.28413371      1.42675902      0.51923386
C      -3.66837452      0.44713108      1.60123192
C      -4.12372381     -0.90051692      1.02541838
C      -3.15553686     -1.74708003      0.22257515
C      -3.59200975     -3.03320616     -0.14286006
C      -2.79069860     -3.86057602     -0.92048344
C      -1.56404754     -3.37794197     -1.32605465
N      -1.09959604     -2.15469181     -1.00262613
C      -1.88580321     -1.35724503     -0.22691032
C       0.81167392     -1.00300255      1.07613557
C       2.15719550     -0.90977147      0.35108170
H       6.17332154      0.41958778     -1.81599398
H       7.68157878     -0.45587360     -1.47401902
H       6.18122905     -1.33906721     -1.84423221
H       6.68480614     -1.39219821      0.60419964
H       6.66104667      0.36707843      0.67551237
H       1.77379416      1.66196400     -0.81090405
H       2.42934133      2.48218382      0.60824260
H       0.72191687      1.49854533      2.07141060
H      -0.03903955      2.33569458      0.73978398
H      -0.93209792      1.84435324     -1.92739503
H      -2.33382234      3.82815173     -2.39448274
H      -4.96584433      2.75257870      0.83342879
H      -4.48850932      0.86583198      2.19843418
H      -2.83290162      0.31423004      2.30007841
H      -4.46364873     -1.50936644      1.87420360
H      -5.00262866     -0.72354745      0.38985646
H      -4.57074635     -3.38975173      0.17203449
H      -3.12126712     -4.85157653     -1.20971859
H      -0.90086528     -3.97728516     -1.94272471
H       0.38617244     -1.99758592      0.92973331
H       0.97723188     -0.91511568      2.15855894
H       2.03252145     -1.09323493     -0.72334446
H       2.82309854     -1.68642564      0.74110830
