15
Cc1ccc(Cl)cc1Cl
C      -2.22387732     -0.30237446      0.18548347
C      -0.73821136     -0.10838709      0.06290070
C       0.11573588     -1.21492925      0.19447917
C       1.49958638     -1.06224646      0.08494193
C       2.04023530      0.19793504     -0.15698604
Cl      3.74568511      0.38261321     -0.29140221
C       1.21203105      1.30817931     -0.29074343
C      -0.17192487      1.15430101     -0.18100187
Cl     -1.15572685      2.56433737     -0.35501674
H      -2.47684881     -1.35114447      0.37483638
H      -2.61806203      0.28546666      1.02061653
H      -2.72530109     -0.00684482     -0.74167452
H      -0.29157249     -2.20647689      0.38373329
H       2.14754831     -1.92896169      0.18927513
H       1.64070281      2.28853254     -0.47944181
