21
O=C(O)CC(O)(CC(=O)O)C(=O)O
O      -1.62417083     -1.88051857     -0.95824611
C      -1.68883472     -0.68211577     -1.17593975
O      -2.73587736     -0.14646166     -1.82574315
C      -0.64814409      0.33867930     -0.81647016
C       0.28182084     -0.18211861      0.28852083
O       1.10138641     -1.25375054     -0.22943215
C       1.25031508      0.89523823      0.78746800
C       2.11703359      1.46189531     -0.30570949
O       2.25856519      2.66067521     -0.49581919
O       2.76004578      0.52874067     -1.04012652
C      -0.51123935     -0.67158331      1.51225429
O      -0.37051236     -1.74781991      2.07007120
O      -1.41611378      0.21808249      1.96133935
H      -3.32439182     -0.90168528     -2.03854186
H      -1.16013728      1.24908309     -0.48376732
H      -0.08844057      0.55587270     -1.73288227
H       0.51920726     -2.04884634     -0.25610515
H       1.92521087      0.49386387      1.55418709
H       0.70034554      1.72668525      1.24539390
H       2.48551322     -0.38968153     -0.79480402
H      -1.83158163     -0.22423462      2.73435249
