14
CCCCCl
C      -1.94006994      0.17694132     -0.15037551
C      -0.51232662      0.52436981      0.24307794
C       0.47257559     -0.54694006     -0.23072527
C       1.90828081     -0.28488178      0.21285481
Cl      2.59407043      1.16150363     -0.56242339
H      -2.03858226      0.09691011     -1.23767904
H      -2.24958554     -0.77429414      0.29423798
H      -2.62847596      0.95370736      0.19703105
H      -0.45539620      0.62513681      1.33314132
H      -0.25697044      1.49873545     -0.18716023
H       0.16224130     -1.51797624      0.17491697
H       0.42987860     -0.63503560     -1.32338125
H       1.96835734     -0.14723941      1.29674309
H       2.54600288     -1.13093726     -0.06025846
