18
CN(CC(=O)O)C(=N)N
C       1.09866195      1.42075927     -0.83749794
N       0.19974122      0.37125028     -0.36619382
C      -1.16382229      0.44301151     -0.94616688
C      -1.56674327     -0.84464176     -1.65795181
O      -1.88698364     -0.89057991     -2.84016024
O      -1.58449099     -1.94320280     -0.86729957
C       0.38058006     -0.29871726      0.80946427
N      -0.54290517     -1.05960027      1.29985368
N       1.56612292     -0.15444476      1.43205138
H       2.14043722      1.08560425     -0.84310413
H       1.01330454      2.30846561     -0.20245946
H       0.87149187      1.71232507     -1.86894219
H      -1.91020815      0.67207279     -0.17588293
H      -1.23578706      1.25211894     -1.68334045
H      -1.26515834     -1.70442264      0.04674658
H      -0.21861051     -1.43055573      2.19999643
H       2.36044951     -0.13827788      0.80464202
H       1.74392013     -0.80116471      2.18966005
