27
CCCCCCCCO
C       4.08589774      0.96197530     -0.30408865
C       3.22164413     -0.28764382     -0.24720500
C       1.75991314      0.05468909      0.04463062
C       0.89568325     -1.20710012      0.09663485
C      -0.55661531     -0.93462047      0.49890023
C      -1.32855873     -0.10719711     -0.53117005
C      -2.79775926      0.03604039     -0.13648178
C      -3.57465043      0.86149629     -1.15379509
O      -4.92911091      0.98486449     -0.74114679
H       4.05862569      1.50144435      0.64804454
H       3.74453478      1.63956331     -1.09318954
H       5.12630285      0.69404566     -0.51308146
H       3.60987622     -0.95752525      0.52883058
H       3.29560276     -0.82007048     -1.20260376
H       1.38957176      0.73249384     -0.73251112
H       1.69169431      0.58723008      1.00089131
H       1.32587498     -1.90543275      0.82536179
H       0.91909073     -1.71277878     -0.87637583
H      -1.06026151     -1.90023444      0.63199830
H      -0.58008087     -0.43001653      1.47247093
H      -1.25827856     -0.58606316     -1.51521725
H      -0.88406364      0.89013084     -0.62164989
H      -2.88193362      0.50537745      0.85163620
H      -3.26234655     -0.95312705     -0.03946840
H      -3.15575000      1.86888375     -1.23994085
H      -3.55464626      0.39558136     -2.14425578
H      -5.30025670      0.08799377     -0.68247195
