12
C1OC1C1CO1
C       2.02259492      0.11487152      0.04815902
O       1.37180976      0.71573674     -1.07703009
C       0.61861503     -0.26683570     -0.34682052
C      -0.61861512      0.26683859      0.34681766
C      -2.02259505     -0.11487380     -0.04815716
O      -1.37180597     -0.71573280      1.07703300
H       2.16435905      0.72211141      0.93299066
H       2.81983098     -0.58986270     -0.15108414
H       0.50897911     -1.23948509     -0.81956772
H      -0.50898061      1.23949003      0.81956072
H      -2.16435959     -0.72211763     -0.93298600
H      -2.81983251      0.58985946      0.15108457
