28
Clc1ccc(C(c2ccc(Cl)cc2)C(Cl)Cl)cc1
Cl      4.83794818     -0.94155627     -2.30771971
C       3.44748667     -0.38002414     -1.46496018
C       2.97925294     -1.08107863     -0.35705734
C       1.84942314     -0.62717057      0.32921692
C       1.17924341      0.53617152     -0.08601790
C      -0.06622477      1.05731887      0.64116579
C      -1.26871365      0.15702464      0.32800156
C      -2.07785966      0.46157515     -0.78242319
C      -3.17236396     -0.34069330     -1.11440807
C      -3.46662897     -1.46116179     -0.34424799
Cl     -4.81288787     -2.45128939     -0.75150717
C      -2.67336878     -1.78743524      0.75212120
C      -1.57718304     -0.98577438      1.08520856
C       0.17933934      1.32556818      2.15292230
Cl      1.52817155      2.48478546      2.41342944
Cl     -1.27285842      2.01714517      2.95247367
C       1.66459874      1.22597421     -1.21114595
C       2.79450772      0.77108553     -1.89536823
H       3.48664679     -1.98298370     -0.02445682
H       1.50220541     -1.20197689      1.18402680
H      -0.30409749      2.04269221      0.21066121
H      -1.86075550      1.32963211     -1.40253397
H      -3.78669595     -0.08666236     -1.97414862
H      -2.90092526     -2.66586852      1.35066174
H      -0.97587884     -1.27777133      1.94209274
H       0.44075846      0.41575572      2.70013713
H       1.16895291      2.12812053     -1.56509279
H       3.15790690      1.31859720     -2.76103113
