23
O=C(OCCO)c1ccccc1O
O      -1.31185449     -0.77259019      0.92865172
C      -0.63541458      0.00366755      0.26642952
O      -1.11155980      0.88032203     -0.64697971
C      -2.54616684      0.95146522     -0.79379142
C      -3.10421207     -0.26337454     -1.53740048
O      -3.44182797     -1.32295455     -0.64549380
C       0.84314793      0.07243171      0.37976431
C       1.59954202      0.94628268     -0.41729121
C       2.99087035      0.99105819     -0.29139322
C       3.63635639      0.16641687      0.62855200
C       2.89405253     -0.70464671      1.42492981
C       1.50590623     -0.75186855      1.30179584
O       0.86461717     -1.63753140      2.12739570
H      -3.01151564      1.08683850      0.18929091
H      -2.73451957      1.85269473     -1.38598656
H      -2.38751282     -0.64853400     -2.26899492
H      -4.02711902      0.01119783     -2.05656933
H      -2.73000905     -1.39147105      0.02463324
H       1.12168754      1.60010708     -1.14283588
H       3.57163723      1.66996417     -0.91176125
H       4.71874182      0.20066515      0.72700784
H       3.39567552     -1.34846296      2.14317997
H      -0.10052290     -1.59167775      1.95686692
