17
O=C(O)c1cccc(C(=O)O)n1
O       3.33783762     -0.80134280      0.19979729
C       2.15784693     -1.08667298      0.29917578
O       1.76155787     -2.31993328      0.67262485
C       1.01117154     -0.16750816      0.03803054
C       1.27699770      1.14131140     -0.35645798
C       0.20366535      1.99690480     -0.59947400
C      -1.09536045      1.52360309     -0.44247756
C      -1.26377877      0.20407322     -0.04594664
C      -2.63109561     -0.36114949      0.13934545
O      -3.66840660      0.25284742     -0.03186720
O      -2.55779095     -1.65821996      0.52627655
N      -0.24385658     -0.66318456      0.20119355
H       2.59378550     -2.81758588      0.81149493
H       2.29940577      1.49059041     -0.47307652
H       0.37963824      3.02459225     -0.90883823
H      -1.95314670      2.16482080     -0.62397041
H      -1.60847087     -1.92314629      0.59416960
