19
Cc1cccc(C)c1O
C       2.59469626     -0.65074033      0.04466800
C       1.26605627      0.04883388      0.00522723
C       1.20873757      1.44620273     -0.05830686
C      -0.02100490      2.10036393     -0.09511357
C      -1.20572766      1.36459955     -0.06879547
C      -1.17954899     -0.03654377     -0.00527413
C      -2.47745255     -0.79086276      0.02121755
C       0.06746384     -0.68027430      0.03116261
O       0.17325603     -2.04440108      0.09347746
H       2.68898181     -1.23433473      0.96614268
H       2.69946843     -1.31507291     -0.81920296
H       3.42520619      0.06259168      0.01728732
H       2.12334278      2.03397438     -0.07951831
H      -0.05655806      3.18562169     -0.14440407
H      -2.15377176      1.89742310     -0.09846032
H      -2.55622553     -1.37711313      0.94238435
H      -3.33906007     -0.11567695     -0.01437894
H      -2.54573230     -1.45791008     -0.84413138
H      -0.71212734     -2.43668091      0.10601881
