15
O=C(O)c1c(Cl)ccc(Cl)c1Cl
O       2.05740753      0.09513801      2.16196349
C       1.81750584      0.21214043      0.97809460
O       2.74331210      0.52722476      0.05821915
C       0.51486537      0.03550011      0.33800579
C       0.13028906     -1.23920399     -0.09331123
Cl      1.14698602     -2.62433738      0.08114956
C      -1.11686238     -1.42076726     -0.69346069
C      -1.97596877     -0.33379186     -0.85850405
C      -1.59296138      0.93964457     -0.42306810
Cl     -2.72102106      2.22768394     -0.66638511
C      -0.34243117      1.13449984      0.18207267
Cl      0.13752805      2.71035092      0.72931208
H       3.57512843      0.62843300      0.56843674
H      -1.42736062     -2.40648043     -1.03492072
H      -2.94641702     -0.48603466     -1.32760418
