37
CCN(CC)C(=O)/C(C#N)=C/c1cc(O)c(O)c([N+](=O)[O-])c1
C       5.16573601     -0.75614873     -0.13140901
C       4.16153459     -0.36249974      0.94084446
N       2.82819589     -0.13637510      0.37992378
C       2.51364818      1.23078735     -0.05239663
C       1.99899778      2.08561326      1.09567925
C       1.98608981     -1.23643282      0.25404148
O       2.29650857     -2.37345607      0.60495393
C       0.63193427     -1.00808162     -0.30246364
C       0.45907003     -1.10289416     -1.70704386
N       0.29407664     -1.12902449     -2.85549213
C      -0.35409638     -0.79497288      0.58787388
C      -1.76651019     -0.57635774      0.25556334
C      -2.72753290     -1.46113275      0.75389944
C      -4.07157390     -1.25800397      0.45875602
O      -4.98867092     -2.14042842      0.95673689
C      -4.49563003     -0.18355636     -0.32257014
O      -5.84902469     -0.10609753     -0.53337319
C      -3.53851091      0.71092952     -0.80988607
N      -3.93306472      1.86921275     -1.61104263
O      -3.06165590      2.69819611     -1.90633455
O      -5.12859673      1.95581317     -1.93543746
C      -2.17446112      0.51906692     -0.52029998
H       6.15290444     -0.91572363      0.31276711
H       5.25573059      0.02400315     -0.89406437
H       4.86418143     -1.68013320     -0.63478122
H       4.10895517     -1.15761529      1.69334898
H       4.49188143      0.54583106      1.45636046
H       1.76670034      1.21535526     -0.85012729
H       3.41925376      1.67690409     -0.47907613
H       1.77152457      3.09632579      0.74259377
H       1.08816831      1.66271393      1.53028844
H       2.74169279      2.16460071      1.89602882
H      -0.13162505     -0.80922594      1.65467849
H      -2.44309591     -2.31542664      1.36469934
H      -5.85553237     -1.82322143      0.62985236
H      -6.04605156      0.65006164     -1.12891336
H      -1.43115133      1.22139380     -0.89417858
