34
CC(O)CN(CC(C)O)CC(C)O
C      -2.70270596     -2.69095996      0.44255222
C      -1.33967647     -2.01565630      0.47061815
O      -1.01611213     -1.71426791      1.82917999
C      -1.33956965     -0.70717344     -0.35199788
N      -0.05892209      0.04772594     -0.22152353
C       0.98350580     -0.58018871     -1.08420137
C       2.41176174     -0.09986708     -0.73556651
C       3.47035378     -0.92498464     -1.45152136
O       2.61770877     -0.22212612      0.67313596
C      -0.27361026      1.46083410     -0.62696367
C      -1.00904360      2.33489732      0.41731012
C      -0.27088554      2.39403567      1.74969799
O      -1.11437783      3.66168141     -0.10866200
H      -2.99603584     -2.95102490     -0.57890916
H      -2.68732323     -3.60528775      1.04557749
H      -3.47233777     -2.04310318      0.87642352
H      -0.59059078     -2.72097945      0.09848108
H      -0.24724305     -1.11483195      1.77563461
H      -2.15779969     -0.09463364      0.04231623
H      -1.57236222     -0.91093237     -1.40497926
H       0.77163718     -0.41425274     -2.14813570
H       0.97061545     -1.66321600     -0.92018686
H       2.55108808      0.95252725     -1.00051198
H       4.47272103     -0.57568583     -1.18114324
H       3.35812977     -0.85836032     -2.53780167
H       3.41594501     -1.97825895     -1.15504574
H       1.79524432      0.11830360      1.07434535
H       0.68613137      1.95624483     -0.81445864
H      -0.80549814      1.51195485     -1.58733907
H      -2.02992266      1.97530265      0.57678801
H      -0.78293067      3.07217637      2.44102631
H       0.74265681      2.78834680      1.61744970
H      -0.20654203      1.40931683      2.22126793
H      -1.57400947      4.20244362      0.55714301
