27
CCCCCC(O)CC
C       4.19528377     -0.70416351      0.96098927
C       3.15159565     -0.21539533     -0.03063229
C       1.73301548     -0.45896092      0.48374435
C       0.68578096      0.03463788     -0.51679488
C      -0.73663436     -0.21020932      0.00098759
C      -1.80440869      0.31905015     -0.96576310
O      -1.65444137     -0.31897746     -2.23519137
C      -3.23796558      0.07312421     -0.48122953
C      -3.59527335      0.82895043      0.78794871
H       5.20207702     -0.52022266      0.57311832
H       4.10005367     -0.18365834      1.91929074
H       4.09188150     -1.77888522      1.14159171
H       3.30284185      0.85481342     -0.21359930
H       3.29486883     -0.73161001     -0.98702912
H       1.59682917      0.05583424      1.44264312
H       1.58800035     -1.53032529      0.66868125
H       0.82913928      1.10663987     -0.69885404
H       0.82957392     -0.47918710     -1.47459742
H      -0.87487759     -1.28920613      0.14476984
H      -0.84546712      0.26934234      0.97981255
H      -1.65453338      1.39244563     -1.12848819
H      -1.77205672     -1.27530391     -2.10312624
H      -3.40267918     -1.00091260     -0.32915002
H      -3.93435793      0.36630250     -1.27725621
H      -4.65659951      0.69247234      1.01942872
H      -3.02204386      0.46754195      1.64642989
H      -3.40960280      1.90135421      0.67227567
