21
c1ccc(OCC2CO2)cc1
C      -3.51323305     -0.19947573     -0.19686152
C      -2.76776495      0.88242935      0.26845839
C      -1.37293406      0.87515623      0.16433677
C      -0.71885115     -0.21752911     -0.40695235
O       0.63228573     -0.35395950     -0.56996271
C       1.45245901      0.71945176     -0.10996216
C       2.87470689      0.36800836     -0.40086467
C       3.69888104     -0.42585809      0.57630237
O       3.83812865      0.99871178      0.45259184
C      -1.47359199     -1.29841194     -0.87128574
C      -2.86560285     -1.29192835     -0.76779652
H      -4.59692370     -0.19056180     -0.11447108
H      -3.27282264      1.73575263      0.71427873
H      -0.83201806      1.73755195      0.53896136
H       1.20496445      1.64209324     -0.64789539
H       1.30882548      0.86852692      0.96731504
H       3.09359525      0.29453035     -1.45705724
H       4.49993999     -1.04211448      0.18811083
H       3.22280491     -0.81051817      1.46955247
H      -0.97194477     -2.15335490     -1.31786256
H      -3.44090416     -2.13850049     -1.13265310
