13
OCC(O)CCl
O       2.20012360     -0.50139847     -0.55026087
C       0.95918540     -0.87641450      0.04568275
C      -0.07958975      0.21661094     -0.21390439
O       0.43210049      1.43611909      0.35094978
C      -1.42052395     -0.15025589      0.41519635
Cl     -2.64250421      1.09419463      0.02962581
H       2.34125545      0.42830042     -0.27945286
H       0.64799312     -1.83431666     -0.38121337
H       1.13839837     -1.00629646      1.11813921
H      -0.17524208      0.37971350     -1.29380363
H      -0.25955172      2.11307289      0.21842934
H      -1.34905151     -0.19177649      1.50614877
H      -1.79259320     -1.10755300      0.03939632
