29
CC1=CC[C@H](C(C)(C)O)CC1
C       3.85688076     -0.60262248     -0.15297246
C       2.36976070     -0.40097570     -0.11106681
C       1.53304303     -1.34451658      0.35498852
C       0.04329720     -1.16857483      0.44971574
C      -0.41207676      0.29695519      0.29424644
C      -1.95539043      0.46709916      0.18039727
C      -2.55314937     -0.11258387     -1.10539489
C      -2.68463900     -0.12645678      1.39268576
O      -2.25241839      1.87196380      0.16316267
C       0.35581382      0.95262076     -0.86995713
C       1.86827160      0.92537990     -0.62473139
H       4.15185985     -1.57778720      0.24848799
H       4.36031656      0.16819202      0.43943992
H       4.21979673     -0.54236016     -1.18405790
H       1.92616555     -2.29957825      0.69710347
H      -0.27933449     -1.54573508      1.42700750
H      -0.41652717     -1.80801309     -0.31113990
H      -0.10152998      0.83632087      1.20290286
H      -2.14116616      0.37417435     -1.99537502
H      -2.39427374     -1.19125197     -1.18849467
H      -3.63386107      0.07130391     -1.14266738
H      -3.74639448      0.14664038      1.37946491
H      -2.27672310      0.27402129      2.32773080
H      -2.61506010     -1.21811560      1.42173572
H      -1.91346977      2.25999705      0.98813928
H       0.14219554      0.42195306     -1.80628545
H       0.04043092      1.99231467     -1.01324387
H       2.37463981      1.17688035     -1.56436143
H       2.13354194      1.70275483      0.10253946
