27
Oc1c(Cl)cc(Cl)c(Cl)c1Cc1c(O)c(Cl)cc(Cl)c1Cl
O       1.32590068     -2.52696517      1.51820553
C       1.87179177     -1.32542352      1.14000201
C       3.03052565     -0.86057170      1.77346063
Cl      3.76263779     -1.77530818      3.03949438
C       3.60526254      0.34092332      1.38584943
C       3.02749743      1.07304579      0.34798873
Cl      3.81908560      2.54923463     -0.09545176
C       1.86049647      0.61357539     -0.29792874
Cl      1.21713200      1.52739383     -1.62685528
C       1.24370915     -0.58984595      0.11458533
C      -0.02494333     -1.13934231     -0.52587341
C      -1.26210082     -0.25024270     -0.50233703
C      -1.89914795      0.07572273     -1.71681582
O      -1.39074090     -0.43499803     -2.88532923
C      -3.02964513      0.90067282     -1.75495452
Cl     -3.77310233      1.29731341     -3.26011862
C      -3.56703380      1.40524427     -0.57988988
C      -2.98059547      1.06938979      0.64087307
Cl     -3.72568587      1.71734536      2.06473286
C      -1.84185184      0.23815187      0.69105236
Cl     -1.18815648     -0.20372690      2.23780759
H       1.84823436     -2.87275214      2.26719273
H       4.50422509      0.70205346      1.87865895
H      -0.32918338     -2.08892422     -0.06881073
H       0.25240389     -1.41806686     -1.54986912
H      -1.91266222     -0.07050359     -3.62568258
H      -4.44405292      2.04660462     -0.60998689
