19
CCCC(=O)CC
C      -3.07703856     -0.05469550     -0.70691852
C      -1.79248829     -0.72062829     -0.24147350
C      -0.62535406      0.26223962     -0.22926409
C       0.67407825     -0.37852871      0.23306852
O       0.74383263     -1.56344666      0.55545214
C       1.88144944      0.54402782      0.27005804
C       3.14239444     -0.15871844      0.73963187
H      -3.89957635     -0.77673306     -0.70792899
H      -2.96915653      0.33874063     -1.72274625
H      -3.35212206      0.77266255     -0.04499387
H      -1.56328561     -1.56553304     -0.90182019
H      -1.94318635     -1.13508299      0.76250505
H      -0.46358671      0.66142667     -1.23674013
H      -0.84755589      1.09648495      0.44541236
H       1.65435348      1.37654254      0.94412444
H       2.03834303      0.94145610     -0.73813548
H       3.01573735     -0.55996585      1.75059896
H       3.98552599      0.53878621      0.75168174
H       3.39763580     -0.99269255      0.07748791
