28
Clc1ccc(C(c2ccccc2Cl)C(Cl)Cl)cc1
Cl      5.21459100      1.48485261     -0.47941067
C       3.68667193      0.72206190     -0.27381071
C       3.13148267      0.61347408      0.99675164
C       1.88974699     -0.00524945      1.16022458
C       1.19008033     -0.52881321      0.05634148
C      -0.18248727     -1.17866576      0.29373365
C      -1.27864677     -0.10221892      0.28447543
C      -1.60512271      0.55291751     -0.92200966
C      -2.59857239      1.53348775     -0.96878279
C      -3.28680360      1.88386528      0.18681822
C      -2.97872380      1.25540652      1.39098321
C      -1.98335371      0.27231814      1.44473383
Cl     -1.68034083     -0.43914686      2.99097438
C      -0.52553739     -2.37741519     -0.63726281
Cl     -2.10098141     -3.12955354     -0.20928436
Cl      0.71824765     -3.67078590     -0.55199700
C       1.76506629     -0.39886891     -1.21903956
C       3.00875650      0.21989799     -1.38113151
H       3.65544008      1.00789639      1.86333098
H       1.47010144     -0.07504977      2.16292112
H      -0.11863933     -1.62310509      1.29444562
H      -1.08391492      0.31544482     -1.84667565
H      -2.83255958      2.02645524     -1.90975017
H      -4.06031443      2.64695337      0.15268488
H      -3.52061628      1.53719363      2.29098598
H      -0.60068220     -2.08005679     -1.68675126
H       1.26512432     -0.77100111     -2.10924343
H       3.44198741      0.30770527     -2.37425542
