20
S=C=Nc1cccc2ccccc12
S       4.26902446      1.02543215     -1.47236766
C       3.22858893      0.58387320     -0.07061871
N       2.56266619      0.30362638      0.85639712
C       1.39219045     -0.38812584      0.47191037
C       1.44782183     -1.78628542      0.34561727
C       0.32161710     -2.51411482     -0.02537004
C      -0.88183792     -1.85396859     -0.26128328
C      -0.98116947     -0.46174608     -0.11645565
C      -2.20451797      0.19123325     -0.34098484
C      -2.31917747      1.57249731     -0.18740294
C      -1.21286468      2.31961540      0.19661096
C       0.01071971      1.68571261      0.42142055
C       0.15900475      0.28926473      0.26452692
H       2.38108131     -2.31023565      0.53901620
H       0.37955305     -3.59477314     -0.12729565
H      -1.75218652     -2.43997925     -0.55088017
H      -3.08513725     -0.37582701     -0.63601473
H      -3.27354862      2.06207726     -0.36298038
H      -1.29850070      3.39560907      0.32480895
H       0.85667281      2.29611447      0.73134572
