15
Oc1cc(O)cc(O)c1
O      -1.86939446     -1.93434774     -0.56594118
C      -0.95705212     -0.95899613     -0.28563897
C      -1.33620274      0.37568899     -0.17429340
C      -0.36554750      1.33071241      0.11310086
O      -0.76671328      2.63097146      0.21625750
C       0.96702458      0.96878223      0.28858779
C       1.32259992     -0.37171611      0.17253752
O       2.63610786     -0.69662379      0.34968336
C       0.36917850     -1.34447099     -0.11429506
H      -2.74372601     -1.51952858     -0.65786209
H      -2.36667854      0.68758344     -0.30580544
H       0.01166034      3.17725462      0.41797295
H       1.73188888      1.70441080      0.51283559
H       2.73206511     -1.65772614      0.23989040
H       0.63478947     -2.39199446     -0.20702984
