13
Oc1cc(Cl)cc(Cl)c1
O       2.52793682      0.16433379     -0.18333237
C       1.16977221      0.08699186     -0.09001358
C       0.42824884      1.16244354     -0.56778376
C      -0.96240290      1.12131472     -0.49023838
Cl     -1.88977570      2.44636035     -1.07831281
C      -1.61012993      0.01661722      0.05939614
C      -0.85032597     -1.05170948      0.53303100
Cl     -1.63988813     -2.42156840      1.21402349
C       0.54295256     -1.02541672      0.46239525
H       2.92282988     -0.64484694      0.18295464
H       0.93593215      2.02233423     -0.99576213
H      -2.69450507     -0.01103204      0.11777106
H       1.11935525     -1.86582212      0.83587144
