21
c1ccc2c(c1)sc1ccccc12
C      -3.48911200     -0.47208275      0.12052750
C      -3.06854417      0.55659974     -0.70850247
C      -1.70606352      0.84157778     -0.83991340
C      -0.73320846      0.08780045     -0.13140674
C      -1.18659200     -0.94096023      0.69509739
C      -2.55907079     -1.23266340      0.83135280
S       0.11497166     -1.74428376      1.47105852
C       1.29793026     -0.74820481      0.72947460
C       2.69470191     -0.82506461      0.90404204
C       3.51552370      0.07134258      0.21743271
C       2.96431866      1.02463058     -0.62504520
C       1.57832470      1.09638133     -0.79447997
C       0.71423136      0.20009371     -0.11138298
H      -4.54983988     -0.69014935      0.21965613
H      -3.79842128      1.14491699     -1.25916506
H      -1.39282722      1.65137623     -1.49396051
H      -2.89053598     -2.03837237      1.48053256
H       3.12848023     -1.57140707      1.56379920
H       4.59405721      0.01923566      0.34616538
H       3.60960981      1.71964292     -1.15666882
H       1.16206581      1.84959039     -1.45861369
