12
Brc1ccccc1
Br      3.19182244     -0.31158745     -0.23312259
C       1.31504326     -0.12837510     -0.09604621
C       0.73538395      1.13673028     -0.18380025
C      -0.65015668      1.27028517     -0.08242167
C      -1.44853811      0.14140690      0.10579594
C      -0.86362755     -1.12250878      0.19298395
C       0.52161204     -1.25943866      0.09199472
H       1.35070279      2.02020648     -0.33030892
H      -1.10739940      2.25419300     -0.15013345
H      -2.52785670      0.24677035      0.18462468
H      -1.48701577     -2.00092493      0.33962152
H       0.97002974     -2.24675726      0.16081229
