35
O=P(OCC(Br)CBr)(OCC(Br)CBr)OCC(Br)CBr
O      -0.15802877     -0.23097233     -2.10609056
P      -0.14432567     -0.09461591     -0.61774899
O      -0.38139195     -1.45780474      0.20044693
C      -1.52390716     -2.22667382     -0.15206085
C      -1.50567171     -3.54773217      0.61607245
Br     -0.00657687     -4.63832471     -0.07830583
C      -2.77439919     -4.36439513      0.44387741
Br     -4.24133918     -3.58948328      1.46888277
O      -1.26094066      0.89592372     -0.01838577
C      -1.28771180      2.21831514     -0.54401072
C      -1.74007438      3.19406407      0.54161159
Br     -0.29149039      3.33250296      1.88294442
C      -2.00473277      4.59577957      0.02015635
Br     -3.68690728      4.66100430     -0.96456348
O       1.22140292      0.47439160      0.00825222
C       2.42289890     -0.19407702     -0.34987688
C       3.61660154      0.57732906      0.21145073
Br      3.74795874      2.29538877     -0.76429614
C       4.94032865     -0.14499202      0.03355575
Br      5.09363325     -1.62930171      1.28894492
H      -2.40993460     -1.63804574      0.10400614
H      -1.52959005     -2.39769839     -1.23461945
H      -1.25451542     -3.38856141      1.67038194
H      -3.10659360     -4.41335113     -0.59767398
H      -2.66749349     -5.38403979      0.82709424
H      -1.99051285      2.20830781     -1.38228559
H      -0.30299881      2.49560772     -0.93914571
H      -2.58960608      2.79352095      1.10532032
H      -2.12073563      5.32514488      0.82795135
H      -1.22402330      4.94715440     -0.66146610
H       2.48250114     -0.27968729     -1.44087842
H       2.37778224     -1.20382674      0.06903813
H       3.44197634      0.87404313      1.25142142
H       5.06052004     -0.56465266     -0.96994093
H       5.79789782      0.49975794      0.24994032
