16
C=C(C#N)C(=O)OCC
C       3.12202262     -0.44048561     -0.16067113
C       1.93725712      0.16466220      0.03564472
C       1.87118800      1.52098661      0.45529090
N       1.85469684      2.63000324      0.79812489
C       0.69526576     -0.61603150     -0.19583647
O       0.67624671     -1.78453866     -0.55677882
O      -0.40096300      0.14533327      0.04806344
C      -1.65045428     -0.52874356     -0.15041105
C      -2.76838223      0.44723923      0.15998219
H       3.18584651     -1.47735974     -0.48158474
H       4.06137946      0.08315863     -0.00624227
H      -1.71501891     -1.39206918      0.52124715
H      -1.72848803     -0.86294613     -1.19100885
H      -2.70382775      1.32647070     -0.48955349
H      -2.69060641      0.80705331      1.19129080
H      -3.74616241     -0.02273282      0.02244274
