28
COc1ccc2c(c1)[nH]c1c(C)nccc12
C      -4.99319328      0.71313163     -0.89758730
O      -3.70592221      1.18685211     -1.27219356
C      -2.62621466      0.58101206     -0.68501805
C      -2.68003162     -0.45632582      0.24494184
C      -1.50338184     -1.00206248      0.78195638
C      -0.25122407     -0.49706524      0.37783639
C      -0.22537607      0.53882427     -0.55193077
C      -1.38970833      1.09405136     -1.09698597
N       1.09478426      0.84721496     -0.77669426
C       1.92501227      0.04717737     -0.02490919
C       3.32158796      0.01406582      0.06021296
C       4.23511356      0.91257596     -0.71091081
N       3.88294830     -0.89664296      0.90078230
C       3.09359122     -1.72712831      1.61571135
C       1.70972776     -1.73650343      1.56926820
C       1.10549419     -0.80773347      0.71077329
H      -5.17575888      0.86872334      0.17082301
H      -5.73714292      1.29516689     -1.45006717
H      -5.12246871     -0.33875670     -1.17301096
H      -3.62406549     -0.87219767      0.58119693
H      -1.56129614     -1.80992638      1.50556107
H      -1.34522969      1.90173247     -1.82095837
H       1.41111015      1.56643082     -1.41040081
H       4.08609571      0.76857567     -1.78534080
H       5.28289601      0.69908153     -0.47760233
H       4.03365077      1.95862423     -0.46083117
H       3.62769000     -2.42048602      2.25989740
H       1.13131176     -2.42841199      2.16804398
