32
O=C1CN=C(c2ccccc2)c2cc([N+](=O)[O-])ccc2N1
O       2.49646762     -3.60802726      1.54817706
C       2.06576752     -2.65241208      0.90102133
C       1.33989293     -2.81843251     -0.42210335
N      -0.02184228     -2.30929680     -0.32946894
C      -0.22340424     -1.04455488     -0.18514708
C      -1.64989175     -0.60113556     -0.07665073
C      -2.03587035      0.37608117      0.84954331
C      -3.37264794      0.77187426      0.92617335
C      -4.32421474      0.18701477      0.09020665
C      -3.94563741     -0.80171710     -0.81779484
C      -2.61099500     -1.20091851     -0.89846160
C       0.85106791     -0.00770944     -0.10626867
C       0.64269960      1.21192240     -0.77556538
C       1.53626441      2.27308115     -0.58646693
N       1.31007537      3.54998651     -1.27634547
O       0.32660759      3.63241233     -2.02419226
O       2.11597702      4.46677442     -1.06636003
C       2.63058889      2.13320509      0.27221403
C       2.84878825      0.91136100      0.91412158
C       1.99120962     -0.17803294      0.69792755
N       2.34821178     -1.37963955      1.32525048
H       1.29474499     -3.88911587     -0.64977108
H       1.90776222     -2.34813033     -1.23300601
H      -1.31532472      0.82152827      1.52931597
H      -3.67632607      1.52926686      1.64478969
H      -5.36567331      0.49336684      0.15454275
H      -4.69043889     -1.26715443     -1.45855392
H      -2.32289155     -1.98003105     -1.60065622
H      -0.22300031      1.33296158     -1.42574099
H       3.32701553      2.95299547      0.44176568
H       3.72230291      0.80966176      1.55651896
H       3.02271442     -1.36718560      2.08098514
