37
CCCCCCCOC(=O)c1ccc(O)cc1
C      -4.78686681      2.06600333      1.11837343
C      -4.03677489      1.20201378      0.11720559
C      -3.16477590      0.16087398      0.81860375
C      -2.41157077     -0.70650064     -0.19251239
C      -1.53478754     -1.74337376      0.51238631
C      -0.84439979     -2.71394602     -0.45283212
C       0.12421662     -2.05499007     -1.43215576
O       1.10892167     -1.32002080     -0.69551492
C       2.00328744     -0.65494579     -1.46793891
O       2.03146372     -0.65417821     -2.68829128
C       2.97042862      0.09378157     -0.61937567
C       2.90033331      0.09310166      0.78234906
C       3.83217121      0.81440140      1.53538128
C       4.82975686      1.53345931      0.88411586
O       5.75770524      2.24976234      1.57915828
C       4.91193475      1.54437986     -0.50348709
C       3.98247536      0.82493481     -1.25726369
H      -5.44458024      1.45710393      1.74685455
H      -5.40388711      2.80333306      0.59536422
H      -4.09160348      2.60539772      1.76952799
H      -3.41367996      1.84425946     -0.51603071
H      -4.75902049      0.70208654     -0.53863363
H      -3.79256522     -0.47571903      1.45395008
H      -2.44652525      0.66578804      1.47611562
H      -1.79310068     -0.06069664     -0.82592587
H      -3.12939170     -1.21537373     -0.84698282
H      -0.78493982     -1.23427936      1.12983392
H      -2.15562211     -2.33183601      1.19955164
H      -0.28661957     -3.43873814      0.15338746
H      -1.59885389     -3.27702996     -1.01435711
H      -0.41242151     -1.38539658     -2.11343212
H       0.62237339     -2.83317862     -2.02244561
H       2.12455936     -0.46448300      1.30154518
H       3.76264501      0.80241379      2.61876586
H       5.58200011      2.15326612      2.52950399
H       5.69630741      2.11081818     -0.99820056
H       4.05140666      0.83750748     -2.34341711
