32
O=c1c(O)c(-c2ccc(O)c(O)c2)oc2cc(O)cc(O)c12
O       1.92446003      1.75911357      2.50100005
C       1.50048871      1.09229320      1.55947308
C       0.05723053      0.77737592      1.45176874
O      -0.76652566      1.25390755      2.45524823
C      -0.36382132      0.04096465      0.40652665
C      -1.77669978     -0.35103713      0.20445941
C      -2.08382611     -1.67383184     -0.16905429
C      -3.40548479     -2.07103632     -0.39060224
C      -4.42263947     -1.14284524     -0.24311493
O      -5.71438903     -1.52801431     -0.45801968
C      -4.13918965      0.17030220      0.11893580
O      -5.19198956      1.03492879      0.24734328
C      -2.82546121      0.57505232      0.33743439
O       0.48017154     -0.45206800     -0.58232130
C       1.82054029     -0.17038685     -0.51388656
C       2.62843124     -0.67583896     -1.53173848
C       3.99732752     -0.42177490     -1.51130613
O       4.75049784     -0.93466645     -2.52536260
C       4.57370830      0.32935059     -0.49033336
C       3.76162078      0.83152147      0.52376915
O       4.37942459      1.56235659      1.50225435
C       2.38545270      0.58180900      0.51160350
H      -0.16845443      1.70546972      3.08786948
H      -1.29174763     -2.41094134     -0.28641845
H      -3.63578603     -3.09315431     -0.67482271
H      -6.23995895     -0.71898958     -0.29764353
H      -4.84234794      1.89154439      0.54831820
H      -2.60870313      1.60385769      0.60843283
H       2.19729657     -1.26396972     -2.33743650
H       5.67967258     -0.68353357     -2.38717930
H       5.64000403      0.53159424     -0.46714840
H       3.70069742      1.85064661      2.15251738
