19
Cc1ccc(C)c(O)c1
C       2.92478052     -0.05840908      0.46638097
C       1.44803291     -0.11662529      0.21024554
C       0.77708879     -1.34473681      0.21188661
C      -0.60405134     -1.39951621      0.00481732
C      -1.34132863     -0.22672448     -0.19842611
C      -2.82458092     -0.28788297     -0.41729555
C      -0.66687459      0.99714454     -0.18236400
O      -1.38726485      2.14385066     -0.37049883
C       0.71235222      1.06006255      0.02383881
H       3.37768559      0.79322549     -0.05208707
H       3.11475711      0.03850121      1.53970704
H       3.42127697     -0.96276073      0.09913304
H       1.32533547     -2.27022589      0.37405154
H      -1.10093029     -2.36694737      0.00606386
H      -3.34817810      0.23794008      0.38759001
H      -3.08611533      0.16673285     -1.37832401
H      -3.18591331     -1.32158104     -0.43116089
H      -0.77976216      2.89994693     -0.33475516
H       1.22368993      2.01800556      0.04119690
