58
Cc1cnc(C(=O)NCCc2ccc(S(=O)(=O)NC(=O)NC3CCCCC3)cc2)cn1
C       7.03169705     -0.11273261     -3.90538770
C       6.49594124     -0.68023128     -2.62857741
C       5.93107008      0.15327890     -1.66484265
N       5.43000506     -0.30414516     -0.49265131
C       5.51652049     -1.65532540     -0.32308863
C       4.95200377     -2.21860786      0.93533381
O       4.90034418     -3.42680507      1.13041427
N       4.47993978     -1.27091293      1.81871612
C       3.68436880     -1.61307937      2.97918623
C       2.21369848     -1.87642803      2.63345983
C       1.52173137     -0.65530891      2.06792928
C       1.40795328     -0.48926244      0.67965558
C       0.81393617      0.65576014      0.14908228
C       0.31508359      1.63512914      1.00945034
S      -0.39259099      3.11728868      0.33779740
O       0.11956177      3.33013249     -0.99703472
O      -0.26494330      4.15035464      1.34760124
N      -2.01650833      2.77656518      0.27518759
C      -2.59650595      1.81905059     -0.53611358
O      -1.96470188      1.08078979     -1.27232097
N      -3.95378989      1.77795257     -0.39289539
C      -4.76557204      0.75664475     -1.04473787
C      -4.74229653     -0.56146103     -0.24687490
C      -5.91837277     -0.66115783      0.71881664
C      -7.26207502     -0.61572082     -0.01256503
C      -7.21592369      0.16836997     -1.32530489
C      -6.18970047      1.29256920     -1.27020130
C       0.43015055      1.48934987      2.39497364
C       1.02996432      0.34347470      2.92064738
C       6.07433107     -2.49314080     -1.27420514
N       6.57806879     -2.02287824     -2.44463767
H       6.23696083      0.40248284     -4.45344752
H       7.84027664      0.59409939     -3.69519942
H       7.42953471     -0.90525373     -4.54716245
H       5.86416674      1.22672151     -1.81419575
H       4.46176641     -0.31344159      1.47132226
H       4.11367465     -2.50825491      3.44284492
H       3.77915220     -0.78415656      3.68878733
H       1.68035161     -2.19967423      3.53631439
H       2.13260591     -2.70700757      1.92092416
H       1.79340753     -1.24825105      0.00109839
H       0.73782071      0.77310789     -0.93047086
H      -2.56542016      3.36947186      0.88022187
H      -4.36629434      2.31059037      0.35570544
H      -4.30901344      0.55474471     -2.02252592
H      -4.79909755     -1.40395994     -0.94882771
H      -3.79994074     -0.67801132      0.30116245
H      -5.85157016     -1.58569779      1.30362503
H      -5.86586010      0.16625337      1.43766487
H      -7.60477760     -1.63574512     -0.22443746
H      -8.01101954     -0.17551408      0.65702533
H      -6.96309384     -0.51144867     -2.14878110
H      -8.21031567      0.57205761     -1.54874254
H      -6.47378987      1.98791253     -0.46935433
H      -6.21686226      1.87432497     -2.19926393
H       0.06927677      2.26285763      3.06853916
H       1.12250313      0.23881185      3.99972043
H       6.13216847     -3.56653280     -1.12906291
