36
CCCCOCCOCCOCCO
C      -6.73787051     -0.10409036      0.83643752
C      -5.41634167      0.57996051      0.52519210
C      -4.38899926     -0.40913706     -0.01806535
C      -3.06161607      0.27225022     -0.33167548
O      -2.16291943     -0.71520602     -0.83490007
C      -0.87818684     -0.18313259     -1.16000784
C       0.04071076     -0.13841566      0.05906842
O       1.30826720      0.39222526     -0.32452198
C       2.23301764      0.40313405      0.76692296
C       3.58000905      0.95678102      0.29145150
O       4.24147447      0.06011329     -0.60914840
C       4.99455116     -0.97207993      0.03838478
C       6.41793129     -0.48201462      0.29808243
O       7.02702205     -0.08958729     -0.93051333
H      -7.16498285     -0.55990928     -0.06253758
H      -7.45874002      0.62252278      1.22411929
H      -6.60634027     -0.88730575      1.58984769
H      -5.03260684      1.05248856      1.43685587
H      -5.58807519      1.37805225     -0.20638987
H      -4.21996334     -1.21678208      0.70523415
H      -4.77129062     -0.89413278     -0.92505981
H      -2.65012443      0.72748001      0.57516370
H      -3.20784287      1.05163938     -1.08825640
H      -0.43239997     -0.84176315     -1.91414224
H      -0.96473878      0.80329641     -1.63195368
H       0.16006323     -1.14988774      0.46550767
H      -0.39339938      0.48740826      0.84617831
H       2.34434802     -0.61613239      1.15017527
H       1.83580094      1.04778103      1.55868077
H       4.22770392      1.18470761      1.14451594
H       3.41305857      1.88544819     -0.26441076
H       4.51254002     -1.30846255      0.96151046
H       5.02574003     -1.81431713     -0.66058321
H       7.02567021     -1.27139454      0.74893476
H       6.42447678      0.38895942      0.95941325
H       6.32405301      0.35950270     -1.44119206
