30
Brc1cc(Br)c(OCCOc2c(Br)cc(Br)cc2Br)c(Br)c1
Br     -7.27777190     -0.89242948     -0.29404649
C      -5.46729573     -0.37587072     -0.46845411
C      -5.08398596      0.91839610     -0.12160596
C      -3.74641603      1.29983667     -0.25198736
Br     -3.28748815      3.09018356      0.18182254
C      -2.79058097      0.38233255     -0.70767218
O      -1.48202557      0.76419141     -0.86220063
C      -0.72397211      0.47373305      0.32054335
C       0.75873476      0.51605794     -0.03332647
O       1.51574788      0.19024391      1.14084178
C       2.80309277     -0.15033686      0.81105568
C       3.81434096      0.81943268      0.81323406
Br      3.46119769      2.63205548      1.25350427
C       5.13035326      0.46655747      0.50472066
C       5.43665773     -0.86188891      0.21529996
Br      7.21791212     -1.34070500     -0.20056492
C       4.44818115     -1.84370823      0.24219297
C       3.13331314     -1.48822176      0.55101591
Br      1.83175527     -2.87002443      0.62326129
C      -3.19789612     -0.90553125     -1.08463857
Br     -1.97405643     -2.17064234     -1.79903826
C      -4.53447308     -1.28949338     -0.95519349
H      -5.82400204      1.62868553      0.23913709
H      -0.93669549      1.21794637      1.09720222
H      -0.97027018     -0.51204551      0.73657471
H       0.95561043     -0.18177533     -0.85780988
H       1.02278305      1.52021403     -0.38582191
H       5.91337351      1.22095721      0.49932307
H       4.70156802     -2.88004467      0.03259091
H      -4.84769198     -2.29095757     -1.23996025
