34
CCCCCCCCCCN
C       4.77017774     -0.81904701     -1.81323302
C       3.85359925     -0.82291844     -0.60024881
C       2.65455772      0.10344664     -0.80141677
C       1.73472105      0.09677991      0.42160522
C       0.53342330      1.02177623      0.21581108
C      -0.36640837      1.13402991      1.45003673
C      -0.99777645     -0.17520356      1.93474032
C      -1.82293022     -0.94064002      0.89599496
C      -3.01471129     -0.14434422      0.35884773
C      -3.85989902     -0.99360724     -0.59021945
N      -4.98390723     -0.21702120     -1.09984034
H       4.23878666     -1.15979550     -2.70757643
H       5.62054295     -1.48795798     -1.64786604
H       5.16051113      0.18519269     -2.00681877
H       3.50686463     -1.84622806     -0.41498718
H       4.42328185     -0.50853472      0.28197465
H       2.09004697     -0.21308335     -1.68700310
H       3.00740070      1.12454426     -0.99089141
H       1.39312289     -0.92779239      0.60650757
H       2.29793795      0.41713819      1.30636622
H       0.89539703      2.02783180     -0.03131627
H      -0.05161005      0.68594251     -0.64795357
H      -1.15836082      1.86255362      1.23936320
H       0.21819539      1.55900312      2.27590540
H      -0.21127973     -0.83884148      2.31334660
H      -1.63776567      0.05146154      2.79697745
H      -2.19155460     -1.86016921      1.36810023
H      -1.18239758     -1.25820480      0.06530448
H      -3.63110739      0.20079114      1.19840135
H      -2.66046613      0.74701745     -0.17208202
H      -4.23827991     -1.88078933     -0.07067294
H      -3.25034882     -1.33501260     -1.43372568
H      -5.57398282      0.08245209     -0.32463500
H      -5.56578109     -0.81131526     -1.68879639
