15
CCCC(N)=O
C      -2.14257799     -0.24361394      0.79066576
C      -0.95631891      0.56470476      0.29116113
C       0.26525794     -0.31941812      0.05783770
C       1.45588371      0.47157372     -0.44001892
N       2.56991695     -0.28347825     -0.66728337
O       1.46346678      1.67904613     -0.64069893
H      -2.42774186     -1.01149207      0.06445691
H      -1.90933272     -0.73718705      1.73951578
H      -3.00598995      0.40964860      0.95090426
H      -1.23212181      1.07479781     -0.63957223
H      -0.71790020      1.34686410      1.02185349
H       0.03219943     -1.09174634     -0.68453702
H       0.55075883     -0.81683722      0.99218930
H       3.41025366      0.20515273     -0.94819022
H       2.64424615     -1.24801488     -0.37728130
