19
COC(=O)c1ccc(O)cc1
C      -3.68753191      0.28200889      0.18140387
O      -2.28511723      0.51722047      0.04834761
C      -1.51369925     -0.54373060      0.39340644
O      -1.92144150     -1.62504065      0.78800086
C      -0.06963762     -0.22189093      0.22841625
C       0.37664357      1.02693853     -0.22642064
C       1.74499823      1.27415762     -0.36247076
C       2.66253168      0.27851463     -0.04561717
O       3.98619015      0.56668806     -0.19445113
C       2.23814890     -0.96643878      0.40707288
C       0.86979779     -1.21573098      0.54385087
H      -3.94252299      0.06290593      1.22302929
H      -4.00359390     -0.53406358     -0.47596963
H      -4.21353415      1.19223553     -0.11951113
H      -0.32643218      1.81660059     -0.47860928
H       2.09371726      2.24127616     -0.71481589
H       4.50693855     -0.21269543      0.06068015
H       2.94787334     -1.74908906      0.65656038
H       0.53667127     -2.18986640      0.89810479
