118
CC[C@H]1OC(=O)[C@H](C)[C@@H](O[C@H]2C[C@@](C)(OC)[C@@H](O)[C@H](C)O2)[C@H](C)[C@@H](O[C@@H]2O[C@H](C)C[C@H](N(C)C)[C@H]2O)[C@](C)(O)C[C@@H](C)C(=O)[C@H](C)[C@@H](O)[C@]1(C)O
C      -4.64505674     -1.15599187      4.09976349
C      -3.30491720     -1.00302787      3.40265225
C      -3.29041921     -1.20305257      1.87876177
O      -1.96189409     -0.78209790      1.45143407
C      -1.81655762      0.47074233      0.92337446
O      -2.73676624      1.26396747      0.77697394
C      -0.35120901      0.72574727      0.61089418
C       0.32819612      1.25232688      1.87704889
C      -0.16161397      1.64614713     -0.62210664
O      -0.19447527      3.02394770     -0.18566786
C      -1.36426897      3.74343930     -0.55968083
C      -1.50804749      4.89680093      0.42667036
C      -2.78335040      5.72408379      0.14573475
C      -3.87578766      5.43669107      1.18969767
O      -2.46530218      7.13690971      0.12280947
C      -2.06438934      7.70991628      1.36064498
C      -3.34935014      5.39871139     -1.26410764
O      -4.24389469      6.43662155     -1.68579057
C      -2.19619078      5.22180983     -2.27093961
C      -2.71306130      4.83751886     -3.65722969
O      -1.23533405      4.22766804     -1.89543379
C       1.21008163      1.44671211     -1.36087631
C       1.24840918      2.29470429     -2.64256050
C       1.68661250     -0.01197548     -1.67849822
O       2.16287097     -0.56822058     -0.43874107
C       3.51584477     -1.03736496     -0.50682356
O       3.57274135     -2.18944998     -1.34230980
C       4.89621376     -2.70039550     -1.46963571
C       4.83214578     -3.87222536     -2.43377754
C       5.44958389     -3.12792764     -0.11251163
C       5.45242428     -1.95011037      0.88783365
N       6.02737360     -2.44529492      2.17464876
C       7.48723998     -2.57403396      2.09759253
C       5.69102996     -1.61967460      3.33236470
C       4.02033575     -1.33141638      0.92952325
O       4.01265095     -0.11172209      1.70152148
C       0.67644910     -0.97505818     -2.44335548
C       1.26049034     -1.26825899     -3.84097911
O      -0.56669462     -0.28921776     -2.63018203
C       0.39461773     -2.33341399     -1.71978128
C      -1.07732374     -2.79732202     -1.70986735
C      -1.59226891     -3.20829251     -3.09246343
C      -1.29367629     -3.94719805     -0.71680473
O      -1.56310299     -5.08593979     -1.09732109
C      -1.15088826     -3.63865515      0.77908447
C      -0.11934371     -4.63956431      1.33166824
C      -2.51155434     -3.74009014      1.52282565
O      -2.30538473     -3.89448187      2.93411563
C      -3.57727872     -2.61373722      1.24682011
C      -4.96372160     -3.14510581      1.65118949
O      -3.66475986     -2.43262085     -0.18376366
H      -4.88963750     -2.20867874      4.26146901
H      -4.60420006     -0.68927276      5.09101570
H      -5.45663459     -0.67629018      3.54641579
H      -2.96600716      0.02274022      3.59326041
H      -2.54603285     -1.61190637      3.89646997
H      -4.02795836     -0.51140471      1.45597338
H       0.04661243     -0.26157496      0.38023094
H       1.37873172      1.48042086      1.68940624
H      -0.16203550      2.15347955      2.25369578
H       0.27897914      0.50513317      2.67210066
H      -0.97895461      1.49769081     -1.33484776
H      -2.24637042      3.09198778     -0.51569482
H      -0.61536239      5.53258264      0.35286905
H      -1.51258434      4.49660614      1.44389363
H      -3.52349783      5.62239352      2.20834121
H      -4.74418430      6.08039220      1.03184868
H      -4.20138024      4.38899022      1.14875467
H      -1.38473446      7.06466687      1.92332708
H      -1.55376430      8.64773143      1.14603570
H      -2.94319044      7.93287650      1.96647759
H      -3.92909233      4.46834101     -1.23709219
H      -3.90687100      7.25063702     -1.25771165
H      -1.66632826      6.17895577     -2.36968967
H      -1.88168563      4.72450806     -4.35497837
H      -3.40100092      5.58269921     -4.05712928
H      -3.23113491      3.86920381     -3.61178599
H       1.97371611      1.88043364     -0.69635025
H       1.12313889      3.35756129     -2.42042508
H       0.47189492      2.00325659     -3.34686018
H       2.21495750      2.20021100     -3.14446311
H       2.56474023      0.10535630     -2.32797005
H       4.14086140     -0.23716955     -0.93032390
H       5.53364097     -1.93257676     -1.91815512
H       5.81485743     -4.32455697     -2.60451820
H       4.15038156     -4.65053075     -2.07090585
H       4.43790701     -3.52870100     -3.40491294
H       4.83473037     -3.94890137      0.29434385
H       6.45964739     -3.52345351     -0.26066709
H       6.11347371     -1.15531478      0.50830214
H       7.79755672     -3.29583210      1.33530338
H       7.89241724     -2.95316730      3.04349782
H       7.97890087     -1.62365123      1.86941250
H       6.16264601     -2.01968166      4.24061885
H       4.62014698     -1.65446681      3.54665846
H       6.01702090     -0.58160934      3.20379491
H       3.32706965     -2.02476704      1.41824120
H       4.50209714      0.56602502      1.21345206
H       2.20884761     -1.80318644     -3.77116144
H       0.57893840     -1.86822695     -4.44787451
H       1.42679509     -0.33297923     -4.39018649
H      -0.79961979     -0.28043091     -3.57828503
H       0.72306437     -2.27578197     -0.67873929
H       1.01367019     -3.13757174     -2.14475200
H      -1.69787165     -1.97151527     -1.35597047
H      -1.62097880     -2.35821031     -3.77783139
H      -0.96273385     -3.98344121     -3.53472774
H      -2.61164932     -3.61514550     -3.03973975
H      -0.71132981     -2.64923474      0.91918161
H      -0.53323476     -5.65673130      1.36174585
H       0.19233367     -4.37296708      2.34672291
H       0.77946791     -4.65921348      0.70568755
H      -2.96370421     -4.68361432      1.19485966
H      -1.55329992     -3.33048567      3.18259402
H      -5.29178760     -3.94178681      0.97115527
H      -5.71690357     -2.35573068      1.57956046
H      -4.97384747     -3.55871689      2.66139816
H      -4.22706792     -1.65792951     -0.36880570
