19
CC(C)OCCO
C      -1.44269949      1.73253819      0.45680655
C      -0.77997602      0.38793452      0.73478658
C      -1.82367513     -0.72426349      0.74052506
O       0.18384929      0.17605821     -0.30173761
C       1.17296155     -0.80611968      0.03244741
C       2.17698380     -0.86329396     -1.11454762
O       2.78948750      0.41482354     -1.28045384
H      -0.69178195      2.52996621      0.43681116
H      -2.18779072      1.97565378      1.22047574
H      -1.93044034      1.73567208     -0.52441493
H      -0.27719489      0.44182033      1.70791833
H      -2.62281038     -0.51354969      1.45820495
H      -1.37544724     -1.68508879      1.01111913
H      -2.26648504     -0.85047588     -0.25352532
H       0.70836252     -1.78666152      0.16812385
H       1.67950838     -0.50057995      0.95452000
H       2.95996748     -1.59968866     -0.91427700
H       1.67984280     -1.11592577     -2.05633134
H       2.04733788      1.05118052     -1.28223736
