14
N#Cc1c(Cl)c(Cl)c(Cl)c(C#N)c1Cl
N       3.46262266     -1.73826551      0.22124834
C       2.46178151     -1.15549213      0.15995711
C       1.21974051     -0.43617109      0.08376548
C       1.21125841      0.96890365      0.12957947
Cl      2.71665429      1.83179297      0.27933261
C      -0.00579857      1.67287402      0.05489171
Cl     -0.01182857      3.41248905      0.11197419
C      -1.21796835      0.96690288     -0.06606049
Cl     -2.72933777      1.82730758     -0.15926521
C      -1.21670972     -0.43817780     -0.11245645
C      -2.45375696     -1.15954067     -0.23592052
N      -3.45055238     -1.74395936     -0.33551029
C       0.00393071     -1.13398498     -0.03720990
Cl      0.00996423     -2.87467861     -0.09432606
