15
Cc1ccccc1
C       2.21469974     -0.16559288     -0.04131703
C       0.72006919     -0.05269312      0.01135936
C      -0.07685188     -1.20304753      0.06301997
C      -1.46881504     -1.09872199      0.08024840
C      -2.07561430      0.15504274      0.03546312
C      -1.29116352      1.30498652     -0.03089412
C       0.10089539      1.20195657     -0.04818248
H       2.55904346     -1.05073735      0.50381248
H       2.68885799      0.70571643      0.42259399
H       2.54799503     -0.23830502     -1.08109508
H       0.38262359     -2.18837231      0.09101619
H      -2.07949615     -1.99648739      0.12573585
H      -3.15915610      0.23570392      0.04799674
H      -1.76321312      2.28296987     -0.07213744
H       0.70012572      2.10758155     -0.10761992
