14
O=C1CCCC1
O       0.33484479      2.20955852     -1.18763978
C       0.17285763      1.14064502     -0.61309784
C       1.29336613      0.19475690     -0.26692345
C       0.59816641     -0.77716169      0.67808395
C      -0.84097957     -0.82510346      0.18313562
C      -1.16994068      0.61969701     -0.17084664
H       2.11918376      0.71662396      0.22094409
H       1.63102988     -0.30596371     -1.17866749
H       0.62702328     -0.38958348      1.70391335
H       1.07208842     -1.76304810      0.67632998
H      -0.90667103     -1.45574386     -0.71204752
H      -1.52586456     -1.23130852      0.93314036
H      -1.90685948      0.68444907     -0.97402318
H      -1.49824499      1.18218234      0.70769857
