20
COP(=O)(NC(C)=O)SC
C      -2.23907066     -1.36869813     -0.83574939
O      -1.43734840     -0.26017731     -1.19702347
P      -0.20914142      0.11365550     -0.21265849
O      -0.59960619     -0.03622424      1.22746884
N       0.99002250     -0.93764996     -0.70281657
C       2.09621248     -1.31718222     -0.02454646
C       2.33162300     -0.75364249      1.34799313
O       2.87195904     -2.12201229     -0.53808652
S       0.37171871      2.06812914     -0.62368036
C      -1.01664354      3.04358901     -0.02029933
H      -2.91573077     -1.59549120     -1.66338340
H      -2.83272599     -1.12577217      0.04940182
H      -1.61538934     -2.24486584     -0.63854461
H       0.90082478     -1.34614272     -1.61845009
H       3.36444467     -0.95660446      1.64718533
H       2.18950474      0.32893182      1.35631778
H       1.65960740     -1.23245348      2.06411968
H      -1.93434328      2.74688582     -0.53431165
H      -0.83220063      4.10422449     -0.20811306
H      -1.14371709      2.89150073      1.05440764
