49
CCCCN1CCCCC1C(=O)Nc1c(C)cccc1C
C       4.09077063      2.09131711      1.66347355
C       3.30206875      0.90090507      2.18685030
C       2.87447937     -0.08281434      1.09150720
C       1.85907092      0.52171331      0.10787900
N       1.31827747     -0.36880505     -0.94718218
C       2.38500366     -0.78399327     -1.87478642
C       1.83425905     -1.59946627     -3.04316146
C       1.09631490     -2.83224012     -2.54195340
C       0.01899093     -2.42537428     -1.54686541
C       0.58660375     -1.55576468     -0.40853693
C      -0.60178866     -1.10371336      0.47120209
O      -0.77092852     -1.56875382      1.59366799
N      -1.37359590     -0.13910876     -0.16100642
C      -2.51778965      0.51345391      0.35118014
C      -2.66889707      1.89053680      0.04671478
C      -1.66364041      2.64948272     -0.78135003
C      -3.76904211      2.60127969      0.55487500
C      -4.72068033      1.96656938      1.34218542
C      -4.60090305      0.60632729      1.60241978
C      -3.52571907     -0.14434799      1.08841331
C      -3.57049390     -1.62829986      1.33560016
H       3.47238411      2.73829938      1.03473625
H       4.95631317      1.76360808      1.07916256
H       4.45616477      2.69589501      2.49987714
H       2.42130332      1.25746794      2.73350606
H       3.92636587      0.36246609      2.91007310
H       2.43835046     -0.95477262      1.59063278
H       3.76727397     -0.42963248      0.55988533
H       2.31229033      1.38437137     -0.39592726
H       1.02780246      0.94810891      0.68127396
H       2.88261296      0.10249006     -2.28632779
H       3.14907849     -1.37920743     -1.36034230
H       1.15643369     -0.97880997     -3.64267155
H       2.65610958     -1.90388491     -3.70109018
H       0.64679232     -3.36995165     -3.38391863
H       1.80378619     -3.51831718     -2.06063712
H      -0.77455553     -1.89074980     -2.08544357
H      -0.45036371     -3.32370518     -1.12691216
H       1.25355341     -2.17385914      0.20435614
H      -0.83284095      0.35034547     -0.86795199
H      -1.94626598      3.70142801     -0.89727046
H      -1.59561285      2.21988414     -1.78598318
H      -0.68027895      2.62752546     -0.30134850
H      -3.88503535      3.66255609      0.34613210
H      -5.56341774      2.52546177      1.73968649
H      -5.37061742      0.11700072      2.19663545
H      -3.11641663     -1.87133550      2.30017350
H      -4.60847589     -1.98150283      1.35616675
H      -3.08509483     -2.19008327      0.53240059
