31
Cc1noc(NS(=O)(=O)c2ccc(N)cc2)c1C
C      -5.36099970      0.44771061     -0.46330072
C      -4.14292676     -0.23496379      0.03279930
N      -4.23087091     -1.45587184      0.57402702
O      -2.93996051     -1.80208433      0.92295625
C      -2.09170557     -0.79844261      0.58193165
N      -0.65449665     -0.83634693      0.84969481
S       0.20783675     -1.35005834     -0.52451946
O       0.30130515     -2.79160749     -0.44091113
O      -0.27396052     -0.67422593     -1.70942155
C       1.81227392     -0.67708965     -0.15990238
C       2.83096762     -1.50797622      0.30886771
C       4.08718303     -0.96188923      0.58597496
C       4.34781771      0.39261543      0.35194952
N       5.56780969      0.95155613      0.74704871
C       3.30211954      1.21802772     -0.07458319
C       2.04124107      0.68629839     -0.35616961
C      -2.80316387      0.24508682      0.03462337
C      -2.30831896      1.55071468     -0.45404465
H      -6.21353671     -0.23723836     -0.51761999
H      -5.19283852      0.85325027     -1.46618442
H      -5.62991241      1.27397438      0.20236870
H      -0.49277566     -1.54675089      1.56782140
H       2.66100794     -2.56979034      0.47102145
H       4.86724635     -1.60684065      0.98342553
H       5.79595632      1.82124966      0.27508281
H       6.34402111      0.29680685      0.73831394
H       3.46453828      2.28618293     -0.19556973
H       1.24783425      1.33783904     -0.71393218
H      -1.33343424      1.79900218     -0.02323069
H      -3.00157880      2.35405964     -0.18455188
H      -2.20867892      1.53680188     -1.54389713
