14
C1CCNC1
C       0.01097835      1.17537555     -0.26693468
C       1.14737468      0.16185115     -0.33199002
C       0.53601370     -1.14905975      0.13177204
N      -0.88830219     -0.98664324     -0.14562855
C      -1.19108948      0.39130478      0.23065010
H       0.24956408      2.01064984      0.39918505
H      -0.17768600      1.58543515     -1.26600061
H       1.99139816      0.45714530      0.29947447
H       1.51154376      0.07885899     -1.36270288
H       0.95659844     -2.00880838     -0.39743103
H       0.70055265     -1.29047198      1.20656878
H      -1.44119471     -1.64184728      0.40404223
H      -2.12443591      0.73909470     -0.22103786
H      -1.28131552      0.47711519      1.32003296
