26
C=CC(=C)CCC=C(C)C
C      -2.30180496      1.97017530     -0.39084099
C      -2.99341568      0.86894572     -0.07182218
C      -2.47249248     -0.33452973      0.56054632
C      -3.31698052     -1.33547364      0.86554071
C      -0.99936213     -0.45287269      0.90189989
C      -0.14178782     -0.82981758     -0.31323310
C       1.30827310     -0.98108306      0.06538208
C       2.32748798     -0.14514817     -0.21377083
C       2.20179119      1.16134753     -0.94753946
C       3.73147408     -0.47598348      0.22203745
H      -1.24041212      2.07963142     -0.20118188
H      -2.80291300      2.81145506     -0.86019981
H      -4.05903990      0.86924972     -0.30233593
H      -4.37949092     -1.28417889      0.64784559
H      -2.96626744     -2.24432397      1.34538879
H      -0.63980151      0.47872631      1.35736239
H      -0.86347784     -1.21723620      1.68031085
H      -0.48308669     -1.79017526     -0.72141021
H      -0.27185202     -0.10611496     -1.12285776
H       1.52579903     -1.89577581      0.61747759
H       2.63638124      1.97048453     -0.35062969
H       1.16866401      1.44415446     -1.15935024
H       2.73819057      1.11043396     -1.90062649
H       4.11084683      0.29675053      0.89867495
H       3.78931116     -1.43513306      0.74733181
H       4.39396585     -0.53350804     -0.64786313
