36
CCCCCCCCCC(C)O
C      -5.74455471      0.64319626     -0.59923107
C      -4.23695932      0.44073577     -0.59103550
C      -3.73270641      0.06574170      0.80305363
C      -2.20673563     -0.04160079      0.88888737
C      -1.63248450     -1.18297008      0.04546207
C      -0.14325592     -1.43556195      0.30229586
C       0.75242365     -0.26959644     -0.12227735
C       2.23364006     -0.61680230      0.05157100
C       3.13079239      0.55136535     -0.37163572
C       4.61831821      0.27020630     -0.13310404
C       5.46491070      1.49160143     -0.46451285
O       5.06105045     -0.79834049     -0.96438341
H      -6.26442141     -0.27003177     -0.29245872
H      -6.08590683      0.90710734     -1.60510834
H      -6.03615373      1.45012048      0.08060573
H      -3.98562599     -0.34518850     -1.31117132
H      -3.74894613      1.36218168     -0.92887739
H      -4.06235515      0.82764744      1.52045281
H      -4.18660024     -0.88141218      1.11920972
H      -1.76348684      0.91339187      0.58474932
H      -1.93398349     -0.19904669      1.93965049
H      -1.78174171     -0.97741221     -1.02058549
H      -2.17934085     -2.10668866      0.27126049
H       0.15105646     -2.33464616     -0.25336521
H       0.01457643     -1.65627177      1.36501690
H       0.55562737     -0.01725833     -1.17119665
H       0.52032115      0.61870967      0.47574491
H       2.43000398     -0.86918854      1.10059225
H       2.46783808     -1.50489823     -0.54650397
H       2.96154567      0.75220517     -1.43715812
H       2.83755357      1.45037836      0.18417841
H       4.79376564     -0.01330333      0.91089734
H       5.19151083      2.34750226      0.15998200
H       6.52716453      1.27293521     -0.31008922
H       5.35238489      1.77397535     -1.51719835
H       4.66077484     -1.61878323     -0.63114338
