20
O=C1NCCN1c1ncc([N+](=O)[O-])s1
O      -1.22908529     -2.35183429      0.58240563
C      -1.59418317     -1.20679774      0.38131512
N      -2.94380330     -0.85500721      0.36978234
C      -3.09553051      0.57025608      0.38727149
C      -1.74108456      1.07860664     -0.07590502
N      -0.85378363     -0.04147716      0.14960985
C       0.51723393      0.04213432      0.04853868
N       1.14224245      1.16932294     -0.23271702
C       2.50866814      0.95076847     -0.26507843
C       2.88523043     -0.34276898     -0.00102380
N       4.21532943     -0.85832304      0.03608269
O       5.12139815     -0.04801324     -0.20120098
O       4.37570079     -2.05608074      0.29852051
S       1.52985159     -1.31646125      0.29419828
H      -3.61942262     -1.52622083      0.71332510
H      -3.30496830      0.87257091      1.41847504
H      -3.92019314      0.87780614     -0.26003592
H      -1.42045031      1.96377758      0.48207346
H      -1.74790876      1.30051142     -1.14904527
H       3.17475868      1.77722997     -0.48643455
