24
O=C1C2CC=CCC2C(=O)N1SC(Cl)(Cl)Cl
O       1.07395807     -1.99731364     -1.29533383
C       0.71593959     -1.31022068     -0.35080701
C      -0.66507840     -1.32656754      0.26348174
C      -1.79486721     -1.54243104     -0.73386942
C      -2.35369750     -0.28552799     -1.31878913
C      -2.07501731      0.93958865     -0.86069668
C      -1.17446509      1.21592078      0.29876319
C      -0.70096779     -0.02545931      1.06725523
C       0.75875321      0.16151495      1.39948151
O       1.17036466      0.81638531      2.34491913
N       1.48682375     -0.47205262      0.42137709
S       3.17357203     -0.39360458      0.30299912
C       3.41575033      1.05931152     -0.77574235
Cl      2.51634163      0.91070442     -2.31210413
Cl      2.90300279      2.56483901      0.03932682
Cl      5.16173590      1.20285201     -1.16144933
H      -0.65187940     -2.18012274      0.95759311
H      -1.47104130     -2.19806891     -1.55027709
H      -2.62041882     -2.05927509     -0.22839520
H      -3.03183170     -0.39594122     -2.16350623
H      -2.52326309      1.80237173     -1.35127627
H      -1.70432637      1.87239437      1.00071171
H      -0.32729234      1.80625636     -0.07317752
H      -1.28209566     -0.16555375      1.98535266
