19
COc1cccc(C(=O)O)c1
C       2.86927592      0.73428625     -0.63083762
O       2.35381864     -0.55699315     -0.33074819
C       1.00746405     -0.65178783     -0.10767918
C       0.55617538     -1.94297262      0.18252961
C      -0.79430445     -2.18868132      0.43204909
C      -1.70709875     -1.13689793      0.39237101
C      -1.26701835      0.16047288      0.10282598
C      -2.27486124      1.24795768      0.07164438
O      -3.46785550      1.12150822      0.27656567
O      -1.74190646      2.44900330     -0.21569087
C       0.09275306      0.40186115     -0.14738193
H       2.70951453      1.42637290      0.20254458
H       3.94891875      0.63665019     -0.78001184
H       2.43890154      1.12506745     -1.55879322
H       1.26718140     -2.76577881      0.21404179
H      -1.13162041     -3.19734399      0.65641794
H      -2.76020599     -1.33045564      0.58728083
H      -2.51316149      3.05417043     -0.20071450
H       0.41402935      1.41356086     -0.36980606
