19
Nc1cc(S(=O)(=O)O)ccc1O
N       2.40598125     -1.10648113     -0.97159287
C       1.37841629     -0.33103595     -0.40028025
C       0.03931483     -0.67405318     -0.57570746
C      -0.95619886      0.08920406      0.04789386
S      -2.65598586     -0.34202014     -0.18779772
O      -3.23183889      0.62664679     -1.09135511
O      -2.73081296     -1.76604179     -0.43577340
O      -3.33347944     -0.14121286      1.26292891
C      -0.63320262      1.16304632      0.88480097
C       0.70623863      1.46425657      1.11792871
C       1.69005041      0.69815169      0.50164601
O       2.99651593      0.93866077      0.82935752
H       3.17859815     -0.52398560     -1.29188345
H       2.07647951     -1.69074999     -1.73733436
H      -0.23452486     -1.51601589     -1.20647865
H      -3.72152984     -1.00289744      1.52545502
H      -1.41265446      1.74960639      1.36595459
H       0.98431050      2.26813750      1.79333672
H       3.45432229      0.09678387      0.64513322
