42
CN(C)CC/C=C1\c2ccccc2CSc2ccccc21
C       4.99096096     -0.96734136     -0.01644004
N       3.92875163     -0.28782994      0.73073372
C       4.03388452      1.15932580      0.52673254
C       2.61151896     -0.80712663      0.31473689
C       1.45371831     -0.33379170      1.21044716
C       0.15654655     -1.01077461      0.83444207
C      -0.91807231     -0.46422111      0.22026675
C      -0.89957402      0.96386766     -0.15267068
C      -0.18367377      1.40644063     -1.27235005
C      -0.18268826      2.75855909     -1.61375813
C      -0.90294906      3.67101497     -0.84508864
C      -1.62693620      3.23438841      0.26564805
C      -1.62895269      1.87821917      0.62309027
C      -2.42013306      1.38502506      1.80362862
S      -3.95744156      0.55309397      1.30552171
C      -3.42571312     -0.94531464      0.45396127
C      -4.49317432     -1.82864099      0.18532896
C      -4.29784569     -3.03735611     -0.48448045
C      -3.02670623     -3.38783172     -0.91197631
C      -1.95586326     -2.53072779     -0.66168785
C      -2.12783993     -1.31080684      0.03181041
H       4.96324859     -2.04699213      0.16877446
H       5.97689566     -0.62134892      0.31385513
H       4.90937444     -0.79928516     -1.09653987
H       3.33713240      1.70381706      1.17114384
H       5.03427672      1.51394923      0.80094228
H       3.84358846      1.44523083     -0.51409334
H       2.63810642     -1.90443399      0.36382037
H       2.40779688     -0.54623822     -0.73246744
H       1.67176044     -0.58376414      2.25661813
H       1.35457271      0.75461033      1.17493231
H       0.11081947     -2.05381048      1.14908622
H       0.36880269      0.69846818     -1.88448628
H       0.37223680      3.09878088     -2.48394120
H      -0.90920823      4.72371715     -1.11637870
H      -2.19629173      3.95717066      0.84574322
H      -2.70548503      2.23573035      2.43344524
H      -1.82090514      0.73416626      2.45019163
H      -5.50553063     -1.57545883      0.49807710
H      -5.14192047     -3.69435507     -0.67670614
H      -2.86594804     -4.32066482     -1.44568211
H      -0.97113986     -2.81746049     -1.02697815
