28
CC(C)C(O)C(C)(C)CO
C       2.62911962      1.11828781      0.45911709
C       1.52230940      0.05113644      0.48201080
C       1.95216622     -1.11288174     -0.41040215
C       0.15483332      0.70003199      0.13183805
O       0.22276030      1.38358987     -1.12670726
C      -1.14990213     -0.16366310      0.19543288
C      -1.31317821     -1.12127547     -1.00299575
C      -1.20512648     -0.97612057      1.50112249
C      -2.37207315      0.80203340      0.18782118
O      -2.47404627      1.53904339     -1.02519618
H       3.57489586      0.70308314      0.82426042
H       2.37044898      1.96352945      1.10566267
H       2.80026152      1.50086640     -0.55266698
H       1.47043768     -0.32413583      1.51164994
H       1.35285830     -2.00378847     -0.21089035
H       2.99168202     -1.39460099     -0.20645962
H       1.88033557     -0.86909661     -1.47404215
H       0.02325207      1.50167673      0.87234994
H       0.54785747      0.75611554     -1.79606007
H      -2.30182019     -1.59615031     -0.98420329
H      -1.22395124     -0.60452294     -1.96366113
H      -0.58430604     -1.93271905     -0.99167263
H      -0.42407827     -1.74232687      1.53486610
H      -2.16653393     -1.49233730      1.60496856
H      -1.08159537     -0.32729882      2.37535551
H      -2.31269682      1.51869989      1.01484445
H      -3.30866025      0.24622439      0.30924652
H      -1.57524998      1.87659963     -1.22608433
