21
CC(C)CC(C)O
C      -2.23552422      0.74595931     -0.75675002
C      -1.16415325     -0.18446807     -0.18135617
C      -1.49340258     -0.50979300      1.27610378
C       0.22708969      0.46282929     -0.33932068
C       1.39591851     -0.42361089      0.11002067
C       2.73618496      0.25853434     -0.13516560
O       1.37640422     -1.65932919     -0.59829005
H      -3.22747850      0.28675180     -0.68851273
H      -2.03995386      0.95879104     -1.81307491
H      -2.26553817      1.69926621     -0.21807735
H      -1.19260979     -1.11818327     -0.75650761
H      -1.41346284      0.38014207      1.90944280
H      -0.82116652     -1.27516484      1.67523191
H      -2.51388494     -0.89772736      1.36636048
H       0.25808418      1.41073514      0.21301547
H       0.36377512      0.70928234     -1.40094988
H       1.31359207     -0.65345927      1.17673754
H       2.80988003      1.19991995      0.41764474
H       2.88471270      0.46456500     -1.20091281
H       3.55852471     -0.39488207      0.17568730
H       1.44300848     -1.46015853     -1.54783764
