18
Cc1ccccc1C
C      -1.70596030     -1.22166212     -0.36705299
C      -0.33046975     -0.64096902     -0.18517723
C       0.79290335     -1.45507063     -0.40014393
C       2.08260873     -0.94903865     -0.24046025
C       2.26605006      0.37714999      0.13612292
C       1.15991739      1.19825640      0.35329111
C      -0.14450926      0.70343245      0.19657521
C      -1.31307629      1.61869292      0.43948844
H      -1.66192585     -2.27505663     -0.66366216
H      -2.24631776     -0.68145959     -1.15078942
H      -2.26889927     -1.16694886      0.57004635
H       0.66954394     -2.49482948     -0.69512442
H       2.94283459     -1.59077868     -0.41024618
H       3.26990101      0.77374715      0.26118252
H       1.32347045      2.23272958      0.64730690
H      -0.98440680      2.62307153      0.72716263
H      -1.93710635      1.23161461      1.25115658
H      -1.91455791      1.71711903     -0.46967608
