20
O=C(O)c1c(Cl)ccc2cc(Cl)cnc12
O      -2.81825347      1.48131892     -1.26803356
C      -2.32426394      1.07857763     -0.23356165
O      -2.67708777      1.54113847      0.97899389
C      -1.32967892      0.01620248     -0.10235332
C      -1.74882595     -1.31550032     -0.01283933
Cl     -3.41535911     -1.76934671     -0.02674675
C      -0.80108125     -2.32881727      0.09660113
C       0.55366776     -2.00657358      0.11168706
C       0.96939103     -0.66803940      0.01611946
C       2.33490642     -0.34477432      0.02768231
C       2.73189920      0.98055199     -0.07045696
Cl      4.39383071      1.40253835     -0.05937106
C       1.75100860      1.94468265     -0.17688565
N       0.42425353      1.66810100     -0.18951726
C       0.02117806      0.37771979     -0.09513148
H      -3.32766249      2.24743963      0.78349345
H      -1.10883696     -3.36966342      0.16937127
H       1.28406595     -2.80987470      0.19694925
H       3.08766915     -1.12497084      0.11190798
H       1.99917947      2.99928967     -0.25790878
