8
Cl/C=C/[As](Cl)Cl
Cl      2.87568090      0.02472869     -0.40054020
C       1.13653814      0.11622021     -0.45068580
C       0.44475917     -0.23720939      0.60476193
As     -1.51040097     -0.17098107      0.64944574
Cl     -2.24831990      1.87778824      0.34653915
Cl     -2.31598076     -1.48340699     -0.91635432
H       0.63444824      0.45630609     -1.33044077
H       0.98327518     -0.58344579      1.49727427
