32
O=C(N[C@H](CO)[C@H](O)c1ccc([N+](=O)[O-])cc1)C(Cl)Cl
O      -2.92161677      1.75920918      0.09339622
C      -3.37463150      0.64706345     -0.17865561
N      -2.63560200     -0.51020931      0.00732477
C      -1.19068576     -0.49410180      0.32607690
C      -0.92014865      0.10680637      1.71760674
O      -1.67513422     -0.59367424      2.70854179
C      -0.35832752      0.18645967     -0.79527677
O      -0.68924979     -0.43240411     -2.05064618
C       1.14300120      0.08550968     -0.60199510
C       1.89530911      1.23845646     -0.32418942
C       3.27789062      1.15876746     -0.13524455
C       3.91763474     -0.08353539     -0.22539416
N       5.37033748     -0.17086509     -0.03027742
O       5.98321373      0.87858972      0.21228340
O       5.89826298     -1.28821167     -0.12265546
C       3.18309420     -1.24233392     -0.50313866
C       1.80134563     -1.15309105     -0.69012635
C      -4.80703282      0.45925604     -0.68339189
Cl     -5.79680902     -0.17279836      0.64772348
Cl     -4.82660868     -0.65924571     -2.06473373
H      -2.94794238     -1.31706465     -0.52670285
H      -0.93628157     -1.56164852      0.36701242
H      -1.18149792      1.16701309      1.77626470
H       0.13402291      0.00697006      1.99168864
H      -2.60524541     -0.55164971      2.41982693
H      -0.64324384      1.23968999     -0.89317303
H      -0.03006797     -0.12752154     -2.69923674
H       1.40962495      2.21103261     -0.24864037
H       3.83660247      2.06768023      0.08083548
H       3.66644249     -2.21474887     -0.57720952
H       1.23755327     -2.05931651     -0.91075308
H      -5.21420998      1.41991641     -1.01035336
