36
CS(=O)(=O)c1cc(C(F)(F)F)ccc1C(=O)c1cnoc1C1CC1
C      -1.37472737      2.56227158      2.00412381
S      -1.74040021      2.20426689      0.30649281
O      -3.07028030      2.71866983      0.03265199
O      -0.63099216      2.60403650     -0.53497820
C      -1.85973350      0.43118681      0.21125554
C      -3.13661555     -0.15426245      0.22007634
C      -3.28999924     -1.54286902      0.06474753
C      -4.66987425     -2.16530113      0.06055801
F      -5.52818729     -1.54609828      0.91578293
F      -5.25200068     -2.11557981     -1.16678176
F      -4.66168120     -3.47715819      0.42365761
C      -2.14701273     -2.33406740     -0.12416811
C      -0.87595157     -1.75395191     -0.14490784
C      -0.72963377     -0.36667342      0.00871792
C       0.64188439      0.17577860      0.05137171
O       1.02804679      0.60608563      1.13441781
C       1.45093947      0.11857383     -1.14587479
C       1.08015739     -0.15971270     -2.48204029
N       2.11864223     -0.13872071     -3.31852656
O       3.20764446      0.19667074     -2.53316962
C       2.80752758      0.35056087     -1.24123598
C       3.76815420      0.72761728     -0.08204548
C       5.21282345      0.30846242     -0.15679982
C       4.28817252     -0.36675075      0.81324796
H      -2.15739927      2.13088705      2.63141985
H      -0.40055952      2.16453297      2.27827374
H      -1.36881982      3.64843424      2.12201709
H      -4.02624319      0.46748908      0.33788186
H      -2.24303450     -3.41332691     -0.24965239
H      -0.00313990     -2.39480097     -0.26685613
H       0.10263201     -0.37787355     -2.88913720
H       3.55846534      1.68912834      0.37665757
H       5.54806981     -0.25789261     -1.01841062
H       5.95626794      0.99132043      0.23804954
H       4.39663244     -0.13986014      1.86763879
H       4.00022599     -1.39107314      0.60817683
