23
O=C1CN(N=Cc2ccc([N+](=O)[O-])o2)C(=O)N1
O      -5.41970129      0.97636957      0.59720557
C      -4.29903817      0.63120449      0.25420991
C      -2.99993432      1.12156640      0.85757698
N      -2.04692153      0.37407559      0.06987856
N      -0.72066248      0.41769935      0.40410639
C       0.15084279     -0.11017841     -0.39547247
C       1.54423017     -0.10041301     -0.03738634
C       2.21309471      0.36164527      1.08418959
C       3.59234368      0.10178966      0.88071698
C       3.66915939     -0.49972523     -0.35243229
N       4.78176343     -0.98949951     -1.10351985
O       4.55710263     -1.48476362     -2.21477186
O       5.89425018     -0.87312293     -0.57159099
O       2.44246395     -0.63137537     -0.92493650
C      -2.69160798     -0.50390125     -0.81551532
O      -2.19970532     -1.35561894     -1.53789828
N      -4.02879456     -0.27090882     -0.72307254
H      -2.86376222      2.19205265      0.69311551
H      -2.92714477      0.83578919      1.90916535
H      -0.09050863     -0.55743204     -1.37215754
H       1.74841717      0.82868991      1.94318694
H       4.41833154      0.32329923      1.54309742
H      -4.72421838     -0.78724217     -1.23397186
