22
CCCCC(=O)CC
C       3.71735210      0.39928241      0.31655730
C       2.44347186     -0.39407528      0.56007601
C       1.21647594      0.33580080      0.01547111
C      -0.06071173     -0.46402094      0.26191970
C      -1.30155702      0.23671728     -0.26933821
O      -1.24886122      1.32916008     -0.83201811
C      -2.61191797     -0.50393366     -0.05818525
C      -3.80761762      0.25021537     -0.61125595
H       3.67143915      1.37594494      0.80885926
H       4.58221871     -0.14108911      0.71394268
H       3.88025733      0.56099869     -0.75379253
H       2.32727000     -0.56602662      1.63647661
H       2.53494224     -1.37650260      0.08239611
H       1.13216294      1.32155423      0.48982313
H       1.33930645      0.51313915     -1.06030408
H       0.01030514     -1.44051339     -0.22990454
H      -0.19908890     -0.62331392      1.33707060
H      -2.53568979     -1.47939044     -0.54980684
H      -2.74507092     -0.66224378      1.01709449
H      -3.91236303      1.22841541     -0.13037206
H      -3.70412212      0.41571070     -1.68875097
H      -4.72820153     -0.31582933     -0.43907422
