7
O=S(=O)([O-])[O-].[Na+].[Na+]
O       0.05929933     -0.92577834     -1.14577059
S       0.00000002     -0.00000002     -0.00000003
O      -0.19727303     -0.76814906      1.24273994
O      -1.12388338      0.93645200     -0.18252777
O       1.26185706      0.75747541      0.08555844
Na      0.00000000      0.00000000      0.00000000
Na      0.00000000      0.00000000      0.00000000
