34
CCCCCCCCCCC=O
C      -5.83598756      0.41836514      0.54064137
C      -4.42827046      0.94088996      0.30230390
C      -3.39458701     -0.18291936      0.37129035
C      -1.97997355      0.34687057      0.13102335
C      -0.94538961     -0.77773660      0.20013211
C       0.47000197     -0.24766138     -0.04080328
C       1.50304532     -1.37423904      0.03277885
C       2.92428987     -0.92014529     -0.31396275
C       3.51096071      0.06698716      0.70057753
C       4.97670415      0.38445983      0.41687468
C       5.12732303      1.21374488     -0.83157363
O       5.87849043      0.91221794     -1.75364592
H      -6.55884046      1.23842840      0.48686910
H      -5.92048085     -0.04473064      1.52894259
H      -6.11074115     -0.32665017     -0.21288282
H      -4.19708606      1.70623206      1.05231069
H      -4.38629208      1.42586270     -0.67990994
H      -3.44358636     -0.66733962      1.35414649
H      -3.63280675     -0.94770163     -0.37799477
H      -1.93101328      0.83104372     -0.85192143
H      -1.74199137      1.11157447      0.88042076
H      -0.99361402     -1.26170054      1.18322779
H      -1.18420718     -1.54234310     -0.54908372
H       0.69654828      0.51959425      0.70781636
H       0.51911985      0.23282840     -1.02535632
H       1.49350603     -1.82141315      1.03423423
H       1.21788391     -2.16755635     -0.66943274
H       2.92973553     -0.47739220     -1.31707471
H       3.56463037     -1.80994161     -0.35812817
H       2.92966506      0.99588524      0.70083351
H       3.43552304     -0.36354788      1.70628544
H       5.56764305     -0.53203850      0.31815084
H       5.39393868      0.96886618      1.24396244
H       4.54585846      2.15120617     -0.86033056
