85
CCC(=O)OC(OP(=O)(CCCCc1ccccc1)CC(=O)N1C[C@H](C2CCCCC2)C[C@H]1C(=O)O)C(C)C
C      -1.04968395      4.28456584      3.48602460
C      -0.18293745      4.85012778      2.37900100
C      -0.32329130      4.03206608      1.12147495
O       0.50439299      3.20853331      0.74425571
O      -1.49053710      4.32985879      0.49790925
C      -1.78995021      3.55236414     -0.67033590
O      -2.22460763      2.25717722     -0.28744234
P      -1.83206900      1.01461965     -1.23875651
O      -1.97207361      1.35096470     -2.69865775
C      -2.95201997     -0.28998547     -0.73429002
C      -2.73593594     -1.59224467     -1.49911501
C      -3.72224976     -2.67671959     -1.06980627
C      -3.50560763     -3.96404095     -1.86891012
C      -4.44360027     -5.05963347     -1.42958156
C      -4.07104903     -5.94841293     -0.41189799
C      -4.94533700     -6.95297588      0.00484256
C      -6.20101232     -7.07453642     -0.58796454
C      -6.58419721     -6.19146169     -1.59610545
C      -5.71076511     -5.18629169     -2.01416982
C      -0.16098881      0.56852307     -0.82639109
C       0.10866772      0.28889956      0.62138090
O      -0.78818878      0.19954973      1.45392663
N       1.43646511      0.13868402      0.97987029
C       2.55578266      0.00620868      0.05658264
C       3.77391637     -0.28730135      0.93867436
C       4.87989468     -1.08635891      0.21559759
C       5.30482822     -0.38006759     -1.08986814
C       6.66449964     -0.86489300     -1.57689196
C       7.77135476     -0.55661798     -0.56848623
C       7.26581479     -0.44823265      0.87005273
C       6.09042107     -1.38382501      1.12856010
C       3.13457229     -1.02791813      2.12562101
C       1.80652114     -0.29600610      2.33256809
C       1.98574835      0.85565599      3.33204722
O       2.32865269      0.69076997      4.49620404
O       1.77962587      2.08983836      2.82131260
C      -2.92086481      4.26022366     -1.44804408
C      -2.45394524      5.61512895     -1.98281737
C      -4.18187192      4.44252979     -0.59620061
H      -0.92899717      4.86675398      4.40399921
H      -2.10861555      4.30438027      3.20754698
H      -0.78341604      3.24399141      3.70114053
H      -0.44535427      5.89168103      2.16214760
H       0.87127377      4.84551246      2.67799496
H      -0.89890517      3.48919354     -1.30812091
H      -3.97441947      0.06604826     -0.90933259
H      -2.86892690     -0.47295827      0.34094225
H      -2.83548571     -1.40015876     -2.57374219
H      -1.71092514     -1.94344584     -1.33748791
H      -3.60259512     -2.87794516      0.00198733
H      -4.74938553     -2.31794088     -1.21120493
H      -3.64735588     -3.77209088     -2.94033733
H      -2.46861454     -4.30769261     -1.75928692
H      -3.09710718     -5.86084747      0.06387445
H      -4.64730446     -7.63917432      0.79315201
H      -6.88165268     -7.85683921     -0.26305983
H      -7.56477108     -6.28472193     -2.05547765
H      -6.02470330     -4.50100484     -2.79844369
H       0.49016793      1.38309953     -1.15837194
H       0.10854345     -0.32396488     -1.40029054
H       2.33473012     -0.82287028     -0.62505005
H       2.67298560      0.92622180     -0.52416922
H       4.18687452      0.66388775      1.30160700
H       4.45191766     -2.06021811     -0.06286190
H       5.34402380      0.70686459     -0.94196500
H       4.55544838     -0.56451148     -1.86838685
H       6.61941504     -1.94804065     -1.74838770
H       6.90781843     -0.40725653     -2.54276928
H       8.27118235      0.38166196     -0.83817785
H       8.53601477     -1.33996623     -0.63631483
H       6.95684800      0.58497507      1.07409810
H       8.08530763     -0.66987393      1.56316485
H       5.82044273     -1.34205598      2.18815455
H       6.42184606     -2.41496747      0.94540014
H       3.76899216     -1.02137992      3.01661442
H       2.93904339     -2.07285464      1.85427503
H       1.03452919     -0.95989440      2.73621403
H       1.45054828      2.06595910      1.89103514
H      -3.20174090      3.63617914     -2.30483882
H      -1.56827860      5.49652067     -2.61571565
H      -3.23553445      6.08202797     -2.59176052
H      -2.19968156      6.30565619     -1.17141485
H      -4.55580224      3.48136702     -0.23188564
H      -4.98265329      4.90581832     -1.18524969
H      -3.99410128      5.08610882      0.27058219
