48
CC(CCc1ccccc1)NCC(O)c1ccc(O)c(C(N)=O)c1
C      -2.25039946      0.58020386      0.70201468
C      -1.43543606     -0.33244016     -0.21617250
C      -2.26838047     -0.92551079     -1.37242960
C      -3.33687178     -1.94574405     -0.95009045
C      -4.63876878     -1.36936565     -0.45362710
C      -5.39752454     -0.50302374     -1.25269060
C      -6.60819505      0.01511280     -0.78945055
C      -7.08055374     -0.33520000      0.47396151
C      -6.34799182     -1.21302176      1.26977571
C      -5.13617635     -1.73203159      0.80564232
N      -0.33076794      0.42178558     -0.84231197
C       0.84207645      0.54225226      0.04998826
C       1.99943425      1.25027701     -0.69941215
O       2.19787091      0.59383000     -1.95797161
C       3.27809836      1.25307531      0.11164066
C       3.43751294      2.17581557      1.15718185
C       4.58916902      2.16440560      1.94625683
C       5.59785676      1.24065160      1.69400998
O       6.68334617      1.29100259      2.52829700
C       5.47848483      0.32591024      0.63951003
C       6.58041059     -0.63273345      0.37678606
N       6.64423312     -1.22998388     -0.85012521
O       7.43290775     -0.84916690      1.23183396
C       4.30769636      0.32621935     -0.13326683
H      -2.81068350      1.32772862      0.13002044
H      -1.61108868      1.11599827      1.41149227
H      -2.95693129      0.00448046      1.30452777
H      -1.02614235     -1.16601351      0.36856397
H      -1.57666589     -1.46286265     -2.03642300
H      -2.70438996     -0.12348542     -1.97945920
H      -3.58093072     -2.57255832     -1.81685324
H      -2.90936081     -2.62517970     -0.20275279
H      -5.05565461     -0.22992410     -2.24867356
H      -7.18553710      0.68970010     -1.41611331
H      -8.02230366      0.07026758      0.83401027
H      -6.71874401     -1.49455203      2.25150474
H      -4.58119674     -2.41904229      1.44123644
H      -0.66560135      1.35405054     -1.09227484
H       1.16793784     -0.46667606      0.33501588
H       0.59499958      1.08949457      0.96616449
H       1.71774073      2.28467710     -0.93020592
H       1.30064896      0.28486207     -2.20681339
H       2.66043103      2.90950294      1.37207565
H       4.69985632      2.87297515      2.76303765
H       7.25176357      0.51516169      2.32321939
H       7.46990353     -1.78355939     -1.03738088
H       6.13350387     -0.88463933     -1.65023232
H       4.17041376     -0.40272609     -0.92621307
