15
c1ccc2[nH]cnc2c1
C      -2.03576324     -0.51840185      0.16445688
C      -1.84417161      0.84247043     -0.08899954
C      -0.56065999      1.38347239     -0.23152946
C       0.50976953      0.49530297     -0.10747174
N       1.86849839      0.66505963     -0.18526971
C       2.45815645     -0.55124110      0.01493613
N       1.56834341     -1.49553411      0.21699205
C       0.35020104     -0.86373931      0.14454461
C      -0.94312900     -1.38695109      0.28418738
H      -3.04408897     -0.91147352      0.27063519
H      -2.71052709      1.49517222     -0.17741048
H      -0.41387043      2.43961563     -0.42816580
H       2.34890316      1.53527141     -0.35972512
H       3.53151458     -0.68519552      0.00209681
H      -1.08317623     -2.44382818      0.48072279
