69
CCCCCCCCCCCCCCCCCCCCCC(N)=O
C       9.42253791      4.08890714     -0.71260406
C       8.15029482      3.32563371     -0.37909494
C       8.27674650      1.84392217     -0.73351478
C       6.99032400      1.08202890     -0.40670809
C       7.11964670     -0.40099226     -0.75998822
C       5.81802410     -1.18639583     -0.57116969
C       5.36029621     -1.25937300      0.88786176
C       4.19016351     -2.22361610      1.10861859
C       2.90697515     -1.79476618      0.39356844
C       1.73966007     -2.72010308      0.74493539
C       0.46565621     -2.31309523      0.00078942
C      -0.70766245     -3.22325843      0.36911851
C      -1.96825657     -2.96072656     -0.46068771
C      -2.52921109     -1.53592091     -0.40069964
C      -2.94138025     -1.10199270      1.00765409
C      -3.48603948      0.32977953      1.06928675
C      -4.72385941      0.62056512      0.21334777
C      -5.93282234     -0.24498811      0.57705787
C      -7.17210131      0.05504489     -0.27242257
C      -7.76973567      1.43913711     -0.01346455
C      -9.06831257      1.63532766     -0.79440837
C      -9.67685999      3.00095293     -0.55860804
N     -10.83866539      3.21702597     -1.24139202
O      -9.20396601      3.86547186      0.16738030
H       9.64879564      4.02611210     -1.78183208
H      10.27663688      3.68973944     -0.15622552
H       9.31076517      5.14615450     -0.45125214
H       7.93424508      3.43528563      0.68998794
H       7.31083574      3.76966292     -0.92714647
H       9.11555055      1.40332739     -0.18041213
H       8.50414096      1.74059339     -1.80161301
H       6.76791066      1.19501913      0.66032847
H       6.15327691      1.52144938     -0.96256690
H       7.91509340     -0.85724581     -0.15869234
H       7.42455680     -0.49435290     -1.80969735
H       5.03567998     -0.73303563     -1.19020782
H       5.97504116     -2.20339496     -0.95028697
H       6.19888835     -1.59159367      1.51209552
H       5.07361831     -0.26339867      1.24379204
H       3.99800556     -2.28550191      2.18703795
H       4.47736820     -3.23035906      0.78145568
H       2.65497924     -0.76482942      0.67352988
H       3.06035475     -1.80868181     -0.69132322
H       1.55891741     -2.69023931      1.82641040
H       2.00076022     -3.75403465      0.48828265
H       0.22476782     -1.27277847      0.24748432
H       0.64221429     -2.35965079     -1.08062586
H      -0.41342499     -4.26897930      0.21334861
H      -0.93308082     -3.12558296      1.43731283
H      -2.74800766     -3.66233991     -0.13873415
H      -1.75394891     -3.20166872     -1.50970655
H      -3.40138109     -1.50266626     -1.06380827
H      -1.80171697     -0.82661540     -0.81124637
H      -2.07291020     -1.14940432      1.67459303
H      -3.67843808     -1.80417830      1.41340791
H      -2.68956633      1.02254598      0.76912655
H      -3.71791853      0.56592149      2.11558072
H      -4.97493143      1.67846648      0.35146746
H      -4.48447657      0.49890257     -0.84898023
H      -6.17485083     -0.11906585      1.63929581
H      -5.68325413     -1.30185957      0.43040068
H      -7.92915859     -0.70720254     -0.04854066
H      -6.92379505     -0.04906970     -1.33573389
H      -7.05669123      2.21964019     -0.30183379
H      -7.96252130      1.56400110      1.05929788
H      -9.80229973      0.87802441     -0.49582268
H      -8.87919803      1.52559026     -1.86855393
H     -11.29645271      2.50479099     -1.79200152
H     -11.30583254      4.10393391     -1.10154051
