12
C=CCC
C      -1.93603922      0.44834274      0.02392177
C      -0.88059676     -0.35537072      0.20487877
C       0.39353551     -0.26087025     -0.58237783
C       1.58009000      0.05131006      0.31609977
H      -2.83427617      0.32819933      0.62185736
H      -1.93050003      1.24031784     -0.71849558
H      -0.93710588     -1.13795237      0.95905821
H       0.56388655     -1.21599901     -1.09211189
H       0.31797807      0.50787556     -1.36030578
H       2.49930044      0.10301301     -0.27618530
H       1.44973523      1.01316839      0.82353682
H       1.71399226     -0.72203458      1.08012369
