27
O.O.O.O.O.O.O.O=S(=O)([O-])[O-].[Co+2]
O      -0.00061873      0.37247608     -0.00000000
O      -0.00096633      0.36672847     -0.00000000
O      -0.00664388      0.39188553     -0.00000000
O      -0.00281794      0.39319783     -0.00000000
O      -0.00625014      0.38122148     -0.00000000
O      -0.00192265      0.39904927     -0.00000000
O      -0.00754788      0.39419737     -0.00000000
O      -0.10952043      1.08076743     -1.06487920
S      -0.00069391      0.03430193      0.00062024
O       0.02293918      0.69179914      1.33375857
O       1.41244933     -0.83348707     -0.18412572
O      -1.32517417     -0.97338143     -0.08537390
Co      0.00000000      0.00000000      0.00000000
H       0.80793511     -0.18604555      0.00000000
H      -0.80731638     -0.18643053     -0.00000000
H       0.82787151     -0.18305746      0.00000000
H      -0.82690517     -0.18367101     -0.00000000
H      -0.79315202     -0.19843593     -0.00000000
H       0.79979590     -0.19344960      0.00000000
H      -0.80245643     -0.19767232     -0.00000000
H       0.80527436     -0.19552551      0.00000000
H      -0.80129121     -0.19286042     -0.00000000
H       0.80754135     -0.18836105      0.00000000
H      -0.78807441     -0.20030935     -0.00000000
H       0.78999706     -0.19873991      0.00000000
H       0.79994473     -0.19434157      0.00000000
H      -0.79239685     -0.19985580     -0.00000000
