15
O=C(O)c1ccc(Cl)cc1Cl
O      -2.63226484      1.38974013     -0.72490634
C      -2.07815457      0.46238871     -0.17093764
O      -2.78546763     -0.48432479      0.47531551
C      -0.62373149      0.19265013     -0.09282740
C      -0.17984018     -1.14169044     -0.11261105
C       1.18515468     -1.43464783     -0.07018959
C       2.11108387     -0.39682086     -0.00895740
Cl      3.79216028     -0.75613526      0.04354177
C       1.68564777      0.92980377      0.01383152
C       0.31789535      1.22884106     -0.02788619
Cl     -0.11543912      2.89927037      0.05490688
H      -3.71607164     -0.19028550      0.37368111
H      -0.89544197     -1.96025118     -0.16785177
H       1.51634659     -2.47040639     -0.08705927
H       2.41812290      1.73186811      0.06928241
