18
Oc1c(I)cc(Cl)c2cccnc12
O       1.79592970     -2.22402776      0.28216074
C       1.41557824     -0.90855352      0.12344506
C       2.37507719      0.09793400      0.01700805
I       4.42127416     -0.30777709      0.08909554
C       1.96562754      1.41753210     -0.14253982
C       0.60157479      1.71510588     -0.19377231
Cl      0.16655519      3.38024877     -0.39411994
C      -0.37880469      0.69675141     -0.08619096
C      -1.77469651      0.91005715     -0.12793040
C      -2.65869138     -0.15732917     -0.01344580
C      -2.12946036     -1.42146493      0.14104130
N      -0.80441540     -1.67788754      0.18697996
C       0.04897014     -0.63677041      0.07520966
H       0.94927548     -2.71883620      0.32999566
H       2.69692523      2.21785858     -0.22755657
H      -2.18421725      1.91033383     -0.25006411
H      -3.73156420     -0.00249382     -0.04446364
H      -2.77493787     -2.29068128      0.23514758
