27
Cc1ccc(NC(=O)N(C)C)cc1Cl
C       4.84491578     -0.28507257     -0.34809857
C       3.34651805     -0.30144522     -0.24477865
C       2.64089295      0.90880149     -0.22260384
C       1.24450591      0.92562096     -0.12630698
C       0.52455583     -0.26569793     -0.04259180
N      -0.88199207     -0.32525276      0.03970015
C      -1.74748981      0.70971307      0.31832723
O      -1.40205835      1.82174013      0.70878110
N      -3.09650745      0.37711497      0.15353332
C      -3.57291891     -0.59727697     -0.82018473
C      -4.06905292      1.38313733      0.54813486
C       1.22092599     -1.47797541     -0.07572689
C       2.61727281     -1.49571654     -0.17251892
Cl      3.40265721     -3.03558471     -0.20251281
H       5.29346040     -0.77274320      0.52334682
H       5.23308992      0.73849415     -0.38600789
H       5.17025081     -0.79311945     -1.26158119
H       3.17002836      1.85820990     -0.28137779
H       0.74533491      1.89078995     -0.12591493
H      -1.28282346     -1.24400801      0.14472123
H      -2.81586027     -1.32899852     -1.10512791
H      -3.87863471     -0.06085613     -1.72420454
H      -4.43478432     -1.12371014     -0.40001553
H      -4.22216555      2.07511803     -0.28559435
H      -3.72030950      1.94527505      1.41959684
H      -5.01379834      0.89450860      0.80367499
H       0.68398671     -2.42106607     -0.02299325
