21
CCOP(=O)([O-])C(N)=O.[NH4+]
C      -2.73108683      0.11650327      0.30543746
C      -1.31809528     -0.31011666      0.64805010
O      -0.44675485      0.78952074      0.45918276
P       0.64921976      0.67216680     -0.74575628
O       1.39338975      1.99952470     -0.81804330
O      -0.04254606      0.12684370     -1.97985455
C       1.93092841     -0.58747442     -0.08048876
N       3.25300051     -0.21554024     -0.21838038
O       1.58111052     -1.61503085      0.49724279
N       0.00000004      0.00000008      0.00000010
H      -2.79560418      0.43505413     -0.74009915
H      -3.03566409      0.97139666      0.91817934
H      -3.43632215     -0.70326417      0.46829499
H      -1.02562910     -1.17301257      0.04171068
H      -1.26170894     -0.60745921      1.69968162
H       3.35915769      0.76930951     -0.46465611
H       3.92660485     -0.66842138      0.37444415
H      -0.30844304     -0.27156127      0.94093199
H      -0.11809857      1.01287811     -0.11986028
H      -0.56312924     -0.49556784     -0.70109428
H       0.98967082     -0.24574908     -0.11997753
