12
CO[P+](=O)OC
C      -2.48933334      0.02118834      0.34994904
O      -1.19883322     -0.56250942      0.41890022
P       0.05220520      0.46253603      0.34491242
O      -0.10488700      0.90227840     -1.25462191
O       1.21704502     -0.64638940      0.15857385
C       2.50023057     -0.15205129     -0.18770913
H      -3.22740209     -0.77549836      0.48630936
H      -2.67233358      0.47959079     -0.62825546
H      -2.64090158      0.75671504      1.14852421
H       2.50188008      0.29994035     -1.18581093
H       2.86831837      0.56543206      0.55487013
H       3.19401158     -0.99845315     -0.20564181
