47
COP(=S)(OC)Oc1ccc(Sc2ccc(OP(=S)(OC)OC)cc2)cc1
C       7.00591856      1.88217599      1.92502137
O       6.73017073      1.56301836      0.57525702
P       5.18099270      1.37145713      0.13282131
S       4.05471946      2.93446429      0.35263200
O       5.35160147      0.85036795     -1.39188250
C       6.30678112     -0.15221152     -1.67395139
O       4.77607088      0.03408203      0.94541645
C       3.61685173     -0.67442304      0.80355139
C       2.71496194     -0.51259721     -0.24388907
C       1.55982061     -1.30082017     -0.29766906
C       1.29386759     -2.24761242      0.69730823
S      -0.16497440     -3.27427420      0.65578547
C      -1.46047834     -2.08086667      0.38101512
C      -2.30517435     -2.22754794     -0.72361111
C      -3.32785279     -1.30376832     -0.96658234
C      -3.50932616     -0.22673371     -0.10364291
O      -4.47170279      0.73128355     -0.25191023
P      -5.38544098      0.97004730     -1.56326451
S      -4.49090714      1.41218430     -3.22562646
O      -6.31732121     -0.35524457     -1.61588122
C      -7.16033974     -0.64473644     -0.51843226
O      -6.44334960      2.07793052     -1.02830493
C      -5.94762512      3.34867492     -0.65449835
C      -2.68403848     -0.08781469      1.01322034
C      -1.66479027     -1.01171083      1.25717923
C       2.21361436     -2.41572471      1.73568245
C       3.36956467     -1.63243793      1.78723218
H       8.07860881      1.76558027      2.09677465
H       6.46779468      1.21181451      2.60053301
H       6.73178418      2.91976292      2.13144833
H       6.10072380     -0.55934920     -2.66725084
H       6.25556199     -0.96512259     -0.94557558
H       7.30972977      0.28151374     -1.67578823
H       2.87512995      0.20856102     -1.03978099
H       0.87099869     -1.16351099     -1.12879798
H      -2.17253166     -3.06078139     -1.41060363
H      -3.95958492     -1.46136191     -1.83576107
H      -6.63021941     -0.52269289      0.42986647
H      -8.03641874      0.00875573     -0.54155364
H      -7.49559113     -1.68199127     -0.60080827
H      -5.51192993      3.86050698     -1.51614222
H      -5.20123822      3.24850195      0.13824993
H      -6.78042877      3.94879229     -0.27712661
H      -2.82564252      0.74546387      1.69704875
H      -1.03150324     -0.88408071      2.13213965
H       2.03855961     -3.15556392      2.51327919
H       4.07458264     -1.77196037      2.60280031
