36
Nc1ccc(S(=O)(=O)Nc2ccnn2-c2ccccc2)cc1
N       3.76828833      3.26034567     -1.49712986
C       3.16833922      2.00609046     -1.34173562
C       2.75170604      1.57877633     -0.07698475
C       2.04213604      0.38516620      0.07656880
C       1.69728803     -0.35875370     -1.05291942
S       0.79878869     -1.87842565     -0.87147627
O       1.22128656     -2.77150109     -1.92995211
O       0.84784812     -2.26713988      0.52041237
N      -0.78830677     -1.37497086     -1.29217528
C      -1.81589454     -1.95632729     -0.39284995
C      -2.49170286     -3.11911704     -0.67727064
C      -3.24539073     -3.37793219      0.47553228
N      -3.09126182     -2.44639110      1.41480363
N      -2.24337175     -1.52787307      0.86295031
C      -1.96256733     -0.31297090      1.55241843
C      -1.38056831      0.78337230      0.90480327
C      -1.12065527      1.96221564      1.61079091
C      -1.44795266      2.05853832      2.96154024
C      -2.04553592      0.98016534      3.60948098
C      -2.30835437     -0.19928644      2.90869747
C       2.07087140      0.07279218     -2.32710852
C       2.78220834      1.26770807     -2.46551810
H       4.28427818      3.57345498     -0.68025606
H       4.31031649      3.35580270     -2.35047920
H       2.98094460      2.17213538      0.80483434
H       1.74926774      0.05932304      1.07281028
H      -0.92806496     -1.67181090     -2.26176901
H      -2.41259582     -3.73102589     -1.56378438
H      -3.89683599     -4.21885343      0.67822383
H      -1.14600562      0.77062283     -0.15386773
H      -0.66876185      2.80949923      1.10008716
H      -1.24595292      2.97661185      3.50706744
H      -2.30897124      1.05362623      4.66153438
H      -2.77233456     -1.02970143      3.43846312
H       1.80824785     -0.50182559     -3.21172633
H       3.03926964      1.61765968     -3.46233809
