22
COC(=O)c1ccc(OC)cc1
C       4.40004003     -0.11397896      0.68038671
O       3.01800480      0.24600708      0.66753635
C       2.21855160     -0.66126587      0.05291805
O       2.58711339     -1.70625172     -0.46019839
C       0.79842564     -0.21644052      0.08049303
C      -0.16603878     -1.04093575     -0.51399328
C      -1.51668652     -0.67114742     -0.51676594
C      -1.91550022      0.52723533      0.07526999
O      -3.19452409      1.00538405      0.14229800
C      -4.21254503      0.20574552     -0.44675289
C      -0.95375513      1.34983418      0.66831354
C       0.39628894      0.98522127      0.67381247
H       4.95140240      0.67795771      1.19475778
H       4.54739760     -1.05030893      1.22772901
H       4.78442003     -0.19634515     -0.34112146
H       0.12984479     -1.97946459     -0.98014010
H      -2.22686976     -1.34188544     -0.98914497
H      -4.04949415      0.08925218     -1.52327802
H      -4.28720809     -0.76717451      0.05015207
H      -5.16637498      0.72400350     -0.30876727
H      -1.25957211      2.28549650      1.13139896
H       1.11707965      1.64906155      1.14403987
