47
Cc1ccccc1OP(=O)(Oc1ccccc1C)Oc1ccccc1C
C       3.38180332      2.07924612      0.76981980
C       3.55845562      1.02593765     -0.28791147
C       4.84406431      0.69504146     -0.73901019
C       5.02028287     -0.27975101     -1.72037723
C       3.91413963     -0.93058512     -2.26008468
C       2.62851863     -0.61167600     -1.81938185
C       2.44840175      0.36035990     -0.83422834
O       1.22062987      0.72124766     -0.35127601
P      -0.17848883      0.02386451     -0.74592719
O      -0.52888370      0.07197847     -2.20734815
O      -0.03988463     -1.45586353     -0.12072947
C      -1.03156045     -2.39743357     -0.08948072
C      -2.27549066     -2.22015762     -0.69697266
C      -3.24101365     -3.22539155     -0.61939086
C      -2.96648321     -4.40807710      0.06201249
C      -1.72325638     -4.59067819      0.66651568
C      -0.74406652     -3.58969713      0.59574646
C       0.59273918     -3.79934940      1.25029264
O      -1.23572577      0.74018893      0.23832857
C      -1.59223842      2.05986632      0.19090459
C      -1.14630447      2.93871692     -0.79730905
C      -1.54902186      4.27519979     -0.77776923
C      -2.39727672      4.73571500      0.22561769
C      -2.84845447      3.85963520      1.21215947
C      -2.45331340      2.51443563      1.20361888
C      -2.94635414      1.58022140      2.27303148
H       4.34222618      2.50778732      1.07494582
H       2.91221943      1.64707263      1.65939062
H       2.75928053      2.89638689      0.39090821
H       5.71774575      1.19666856     -0.32887983
H       6.02031278     -0.52884640     -2.06601828
H       4.05051267     -1.68677041     -3.02930674
H       1.79139861     -1.13555211     -2.27118395
H      -2.52507014     -1.31636241     -1.24487449
H      -4.20815835     -3.08476297     -1.09579967
H      -3.71939820     -5.18997020      0.11992668
H      -1.52261262     -5.52121766      1.19283395
H       0.75997423     -3.04008626      2.02111018
H       1.39268536     -3.74287357      0.50486246
H       0.65554097     -4.78125420      1.73100758
H      -0.49094123      2.61663662     -1.60111269
H      -1.20141146      4.95651526     -1.55047173
H      -2.71025597      5.77661450      0.23825101
H      -3.51263695      4.23365839      1.98811965
H      -3.49032029      0.74278607      1.82408646
H      -2.10378502      1.19530228      2.85646732
H      -3.62852420      2.08527292      2.96488679
