41
CCN(CC)C(=O)C(C)Oc1cccc2ccccc12
C       0.58482644      1.57677879     -2.12780135
C      -0.56492209      0.67054786     -2.54212520
N      -1.70507535      0.78637339     -1.63102686
C      -2.69574928      1.81929518     -1.94127627
C      -3.82569112      1.26954481     -2.79725736
C      -1.89378390      0.02877031     -0.47253669
O      -2.87894044      0.20938208      0.25101926
C      -0.85366871     -1.06446752     -0.12602937
C      -1.30755071     -2.37323013     -0.77034204
O      -0.75351080     -1.31010426      1.28715717
C       0.17829837     -0.47276866      1.85741490
C      -0.24731647      0.78259654      2.29890285
C       0.66843374      1.66171623      2.86676919
C       2.00217990      1.27543781      3.01613852
C       2.43579696      0.00049342      2.61483198
C       3.77303867     -0.39568302      2.79380196
C       4.20155049     -1.66849612      2.41279679
C       3.30032309     -2.56314647      1.84643762
C       1.96960660     -2.18352851      1.65762173
C       1.51319561     -0.90065805      2.03179526
H       0.95736720      1.32161585     -1.13031917
H       0.26923950      2.62587233     -2.10394059
H       1.41445019      1.48740593     -2.83732185
H      -0.89909893      0.92749993     -3.55336241
H      -0.22086580     -0.36604525     -2.58376906
H      -3.11199057      2.22366602     -1.01110020
H      -2.19814158      2.65084765     -2.45349900
H      -3.45060382      0.91932339     -3.76469341
H      -4.57690443      2.04592395     -2.98180750
H      -4.31955204      0.42323694     -2.30534787
H       0.13396488     -0.80650055     -0.52422993
H      -2.28670896     -2.67865949     -0.38400984
H      -1.38816638     -2.28886500     -1.85743589
H      -0.60921659     -3.18186725     -0.53294394
H      -1.29220748      1.06965966      2.21041563
H       0.34398978      2.64277998      3.20217279
H       2.70121016      1.97600626      3.46879639
H       4.49246651      0.28586665      3.24323594
H       5.23563499     -1.96366326      2.56913176
H       3.62750106     -3.55875054      1.55823377
H       1.27659132     -2.90420687      1.22892447
