28
Cc1oncc1C(=O)Nc1ccc(C(F)(F)F)cc1
C       4.61745378      0.89765286     -0.87016827
C       4.09068607     -0.08745896      0.09646915
O       5.01875064     -0.79790046      0.79163963
N       4.38011086     -1.67185141      1.65118107
C       3.07688072     -1.46651955      1.45411380
C       2.81964869     -0.47605925      0.47831272
C       1.57687471      0.06684159     -0.05164681
O       1.59821847      0.96887383     -0.88098492
N       0.43084790     -0.52224829      0.45692406
C      -0.91023183     -0.20862569      0.14359493
C      -1.90525076     -0.95916539      0.78373484
C      -3.26028540     -0.71637924      0.53335907
C      -3.64958259      0.28075860     -0.36983048
C      -5.11024305      0.56142603     -0.62579822
F      -5.89093735     -0.55061908     -0.52155997
F      -5.62525088      1.46279466      0.25471637
F      -5.35087866      1.06833330     -1.86678905
C      -2.65333128      1.03642588     -1.00143546
C      -1.29732440      0.79150878     -0.74910905
H       4.26379147      0.67087825     -1.88059296
H       4.29025024      1.90766699     -0.60513059
H       5.71194006      0.89226988     -0.88795699
H       2.38587872     -2.05488774      2.03951934
H       0.54795456     -1.27098042      1.12252602
H      -1.64549230     -1.74507699      1.48904381
H      -4.01326380     -1.31288578      1.04724745
H      -2.92474267      1.82649307     -1.70126182
H      -0.57247194      1.40873454     -1.27120740
