44
CC(C)N1C(=O)N(c2ccccc2)CSC1=NC(C)(C)C
C      -1.37887274      2.83119843     -0.57640292
C      -1.01305990      2.01561032      0.66751167
C      -0.32845709      2.88312440      1.73254654
N      -0.26129817      0.77847969      0.32909536
C       1.09916823      0.93714376     -0.02292609
O       1.55373290      2.04623672     -0.30996868
N       1.88659418     -0.22227917      0.00008322
C       3.28292089     -0.20263632     -0.34596984
C       4.20138050     -1.07389770      0.26452337
C       5.55638290     -1.06590784     -0.08817667
C       6.02044804     -0.18842406     -1.06150390
C       5.13014113      0.68168317     -1.67976749
C       3.77650804      0.67295447     -1.32473949
C       1.31369008     -1.42668475      0.54015595
S      -0.16660574     -1.80073279     -0.38464991
C      -1.03109833     -0.37603855      0.09215852
N      -2.29843559     -0.32624628      0.24350824
C      -3.33329469     -1.34141964      0.06635326
C      -3.17438018     -2.50085464      1.05394626
C      -3.42454375     -1.82033018     -1.38530609
C      -4.65372874     -0.61566231      0.40390201
H      -2.02843033      3.67100698     -0.30730996
H      -1.91370351      2.21289525     -1.30519509
H      -0.49696302      3.24225936     -1.07617183
H      -1.96073703      1.72273634      1.13484961
H      -1.02335796      3.64660874      2.10008857
H       0.55066208      3.41134143      1.35432014
H      -0.01732848      2.27293745      2.58719684
H       3.90496174     -1.75106954      1.05964440
H       6.24982649     -1.74117978      0.40685800
H       7.07194030     -0.17941582     -1.33553708
H       5.48128860      1.37029308     -2.44417645
H       3.11484220      1.35063026     -1.85864169
H       1.09630762     -1.28846405      1.60529807
H       1.96698482     -2.29344399      0.42233978
H      -3.02267066     -2.13201041      2.07482308
H      -4.06588706     -3.13874405      1.05653617
H      -2.32865419     -3.14827266      0.81029400
H      -3.44891361     -0.97280155     -2.07985713
H      -2.58318804     -2.45547651     -1.67249981
H      -4.33276580     -2.41264964     -1.54650615
H      -4.81365303      0.24180337     -0.26070838
H      -5.51671117     -1.28369562      0.30544352
H      -4.64104193     -0.23060538      1.43056979
