16
CC(C)(N)C(=O)O
C      -0.67584590      1.33980872     -0.29414727
C       0.00220590      0.00246172      0.00387255
C      -1.01844507     -1.13025413      0.10400938
N       0.98681926     -0.29964413     -1.08389207
C       0.78126052      0.13479189      1.33282189
O       0.28966505      0.14513605      2.44967230
O       2.11599078      0.26235024      1.10181657
H      -1.23133897      1.30792148     -1.23825846
H      -1.38213598      1.60768764      0.50030669
H       0.05667227      2.15316281     -0.35953105
H      -1.55359058     -1.27204752     -0.84170936
H      -0.53707579     -2.07934081      0.36767252
H      -1.76352566     -0.92197753      0.88052982
H       1.19609424     -1.30420511     -1.05670711
H       0.51429370     -0.17085360     -1.98384044
H       2.21895624      0.22500228      0.11738404
