14
O=[N+]([O-])c1cc(Cl)ccc1Cl
O      -2.87268705     -0.09741111      1.12293438
N      -2.29367784      0.30725228      0.10761639
O      -2.81341779      0.91908658     -0.83395425
C      -0.86910333      0.09648249      0.03624400
C      -0.03942905      1.21207606      0.20282061
C       1.33828589      1.02876531      0.14544149
Cl      2.38723802      2.37510783      0.34959270
C       1.87628375     -0.24084935     -0.07620628
C       1.03007982     -1.34330558     -0.24695142
C      -0.35692903     -1.18090097     -0.19298312
Cl     -1.34537161     -2.57107266     -0.44239298
H      -0.45986699      2.20025672      0.37406832
H       2.95479052     -0.37987958     -0.12078493
H       1.46380471     -2.32560804     -0.42544492
