16
CC(C)CC=O
C      -1.10258782      0.97145936     -1.04041969
C      -0.34164962     -0.14118951     -0.31662620
C      -1.07947354     -0.51605818      0.97127859
C       1.09724814      0.30681870     -0.02848243
C       2.02969825     -0.82314216      0.34626808
O       1.73793263     -2.01370136      0.32020195
H      -1.14907875      1.88192681     -0.43311896
H      -2.12849213      0.65992790     -1.26388330
H      -0.61673553      1.22124719     -1.98959685
H      -0.32654211     -1.02097354     -0.97214589
H      -2.10311031     -0.83734114      0.75048769
H      -1.13512718      0.33464200      1.65920459
H      -0.58127189     -1.33905599      1.49263240
H       1.11898975      1.04169290      0.78423389
H       1.53360573      0.77992873     -0.91601448
H       3.04659439     -0.50618169      0.63598062
