12
C1OCOCO1
C       1.00610647     -0.87587777     -0.01281631
O       1.29370611      0.41661133      0.48864997
C       0.25744813      1.30425379      0.11053566
O      -1.00376837      0.86250577      0.57840487
C      -1.25833769     -0.43639368      0.07564789
O      -0.24418997     -1.34942673      0.45325266
H       1.04038331     -0.88373947     -1.10980194
H       1.78195127     -1.55868165      0.34564424
H       0.24167507      1.44213799     -0.97820373
H       0.46422024      2.27862016      0.56275849
H      -2.20375049     -0.78513536      0.50135187
H      -1.37544407     -0.41487439     -1.01542366
