18
O=CC1CC=CCC1
O      -1.46835922      1.85912513     -1.27665521
C      -1.67512574      0.78804068     -0.71308012
C      -0.95011516      0.32285997      0.53878481
C      -0.73856786     -1.19833582      0.49860473
C       0.47894813     -1.61789421     -0.27273802
C       1.43817779     -0.76099168     -0.65030309
C       1.41955242      0.70147032     -0.31446697
C       0.37412516      1.06356130      0.74641373
H      -2.49362399      0.13446709     -1.06142735
H      -1.62961789      0.55275437      1.36922009
H      -0.63127682     -1.57567900      1.52321929
H      -1.61614563     -1.69607806      0.06918253
H       0.57022664     -2.67080015     -0.53010703
H       2.28684196     -1.12364701     -1.22599737
H       2.40953262      1.00176004      0.04787898
H       1.23508788      1.26674791     -1.23527800
H       0.22077773      2.14932903      0.74937971
H       0.76956199      0.80331011      1.73736929
