20
CCC(C)(C)C
C       2.11592228      0.43274663      0.17391391
C       1.00626285     -0.19669900     -0.65963948
C      -0.42209957     -0.10216896     -0.06391059
C      -1.39710222     -0.78782198     -1.04085624
C      -0.50607778     -0.81947520      1.29355368
C      -0.85515707      1.36289399      0.11027864
H       2.20376982     -0.04202722      1.15499041
H       3.07679891      0.30941564     -0.33702122
H       1.95630090      1.50509457      0.31614444
H       1.01681154      0.27577784     -1.65063876
H       1.26121247     -1.25216200     -0.82219352
H      -2.42679760     -0.75009093     -0.66749593
H      -1.38188685     -0.30059479     -2.02235333
H      -1.13534069     -1.84195115     -1.18663409
H      -0.16157465     -1.85654184      1.21425219
H       0.10133449     -0.31962080      2.05509942
H      -1.53716541     -0.83962639      1.66506463
H      -0.25022031      1.87822659      0.86343190
H      -0.76501115      1.91601072     -0.83121683
H      -1.89997996      1.42861427      0.43523076
