32
c1ccc2c(c1)c1cccc3ccc4cccc2c4c31
C       3.79241307     -1.55280367     -0.09579582
C       3.06227053     -2.72111500     -0.12749392
C       1.67013745     -2.65694181     -0.08802967
C       0.95122294     -1.43158949     -0.01568037
C       1.70539868     -0.22482313      0.01705935
C       3.12327027     -0.33176390     -0.02494738
C       1.03026094      1.04001064      0.08997964
C       1.70163178      2.29072258      0.12681696
C       1.02468731      3.50767693      0.19769485
C      -0.35895556      3.52142465      0.23473617
C      -1.07268871      2.32200800      0.20125264
C      -2.46802218      2.35732752      0.23954438
C      -3.20421505      1.17933234      0.20758383
C      -2.55961924     -0.05725301      0.13670113
C      -3.32494710     -1.22450190      0.10597707
C      -2.70488966     -2.46007252      0.03578557
C      -1.31300299     -2.53303551     -0.00405510
C      -0.48293358     -1.38127163      0.02428851
C      -1.13667227     -0.12581955      0.09623457
C      -0.38605923      1.07524702      0.12882077
H       4.87801495     -1.58051708     -0.12559997
H       3.56399333     -3.68310269     -0.18264466
H       1.15105865     -3.61039075     -0.11592020
H       3.75285727      0.55278290     -0.00296975
H       2.78560649      2.34789726      0.10075744
H       1.58184767      4.44029375      0.22367422
H      -0.87502581      4.47706770      0.28998950
H      -2.99930362      3.30491263      0.29484390
H      -4.28984441      1.23989649      0.23881884
H      -4.41114356     -1.18111351      0.13647880
H      -3.29901321     -3.36964452      0.01178483
H      -0.88833515     -3.53084073     -0.05873706
