22
Clc1cccc(-c2ccccc2)c1
Cl     -3.70193853      2.37736037     -1.37448771
C      -2.84079248      1.04876429     -0.69890279
C      -3.54334633     -0.02057205     -0.14987715
C      -2.84432812     -1.09386277      0.39754642
C      -1.44650076     -1.09145749      0.39298986
C      -0.72243361     -0.01947005     -0.15800416
C       0.74986807     -0.02166611     -0.16148283
C       1.47155067      0.17310093     -1.35118699
C       2.86915390      0.17114352     -1.35522653
C       3.56957515     -0.02476298     -0.16788629
C       2.87414498     -0.21904042      1.02265210
C       1.47653279     -0.21787959      1.02491173
C      -1.44503634      1.05371767     -0.70550305
H      -4.62984409     -0.02359337     -0.14604290
H      -3.38441895     -1.93468937      0.82546934
H      -0.91876323     -1.94536904      0.81496621
H       0.94543225      0.31729880     -2.29286058
H       3.40865503      0.32061117     -2.28688411
H       4.65639351     -0.02554602     -0.17037334
H       3.41765007     -0.36868692      1.95191828
H       0.95404419     -0.35975641      1.96887757
H      -0.91559817      1.90435584     -1.12915445
