32
CC(C)NCC(O)c1ccc(O)c(O)c1
C      -3.77603242     -0.83228094     -0.47610505
C      -3.34317923      0.47058486      0.19784441
C      -3.21261058      0.29396853      1.71123541
N      -2.14323812      1.06595117     -0.41222295
C      -0.92281205      0.23672382     -0.32215370
C       0.28249529      1.03103735     -0.88622303
O       0.34379831      2.30013036     -0.22276944
C       1.58336675      0.27453888     -0.72154926
C       1.92824887     -0.72667600     -1.65045988
C       3.10912361     -1.45949202     -1.50847183
C       3.94658898     -1.19156924     -0.43763474
O       5.10124003     -1.90673801     -0.29735276
C       3.62340811     -0.20510103      0.48876198
O       4.49663939      0.01274730      1.51902809
C       2.44774763      0.52635702      0.35801232
H      -4.75442749     -1.14939848     -0.09847006
H      -3.86783824     -0.70270505     -1.55995079
H      -3.07024587     -1.64744808     -0.28613587
H      -4.14892820      1.19801953      0.03630853
H      -2.50949847     -0.50217967      1.97604288
H      -2.87781252      1.22197080      2.18748215
H      -4.18286766      0.03191132      2.14779416
H      -2.34079191      1.24491698     -1.39935727
H      -0.71718708     -0.00248560      0.72693928
H      -1.04009954     -0.70138759     -0.87507503
H       0.12546202      1.24693014     -1.95036429
H      -0.59432563      2.52396608     -0.05175251
H       1.27714930     -0.94127542     -2.49539329
H       3.37349792     -2.22943353     -2.22667279
H       5.51553169     -1.53919652      0.50885940
H       4.15663024      0.76144569      2.03966583
H       2.19096690      1.29616737      1.08062865
