43
COCCCC/C(=N\OCCN)c1ccc(C(F)(F)F)cc1
C      -3.90257816     -2.62607417     -0.19689496
O      -3.30724569     -1.38729321     -0.56118903
C      -3.75306600     -0.32410745      0.27865267
C      -3.12558784      0.99118581     -0.17767829
C      -1.60557732      0.94841284     -0.36058442
C      -0.85028083      0.54123507      0.90386455
C       0.65581292      0.52637063      0.65440347
N       1.40113930      1.59308329      0.72842280
O       0.65348198      2.73290420      1.05864922
C       1.52065548      3.87079994      1.09101411
C       1.74075199      4.42566482     -0.32029568
N       0.50857506      4.98093843     -0.89658557
C       1.31358458     -0.77757116      0.30561021
C       0.59235853     -1.86570665     -0.19916259
C       1.24589867     -3.06256083     -0.51502291
C       2.63186981     -3.19100187     -0.34095593
C       3.32923743     -4.49110153     -0.66130778
F       4.63092955     -4.32575234     -1.02712032
F       2.74081888     -5.17482278     -1.68233516
F       3.34369858     -5.34384487      0.39988063
C       3.35084829     -2.10029449      0.16739069
C       2.69852714     -0.90395994      0.48159475
H      -3.52252935     -3.40057360     -0.86839541
H      -3.63440344     -2.89180380      0.83016473
H      -4.99044455     -2.57431007     -0.30233551
H      -4.84482548     -0.24212179      0.22136679
H      -3.48074533     -0.53803961      1.31819771
H      -3.56347098      1.26787464     -1.14501205
H      -3.39369523      1.78331939      0.53106402
H      -1.35382107      0.27145935     -1.18543364
H      -1.27028196      1.94109031     -0.68534587
H      -1.07880149      1.23131740      1.72413329
H      -1.16730450     -0.44380519      1.25927327
H       1.05193229      4.62674636      1.73047667
H       2.47744925      3.60057400      1.55425374
H       2.10553535      3.63357322     -0.98295786
H       2.49571843      5.21752493     -0.28763729
H      -0.20502847      4.25009445     -0.86837925
H       0.66708455      5.17979477     -1.88333828
H      -0.47900976     -1.80792919     -0.37345252
H       0.66422858     -3.89632296     -0.90759495
H       4.42713088     -2.17372979      0.31924320
H       3.28142991     -0.07123655      0.87135875
