10
[NH4+].[O-][Cl+3]([O-])([O-])[O-]
N       0.00000000     -0.00000000     -0.00000001
O       1.22052205      0.19385247     -0.75845269
Cl      0.00000001      0.00000000      0.00000000
O       0.30728762     -0.67489596      1.24603093
O      -0.60244769      1.28803619      0.28376558
O      -0.92536199     -0.80699270     -0.77134382
H      -0.63455729      0.80429394     -0.06843887
H      -0.38614108     -0.78705115     -0.53449149
H       0.10232528     -0.27240211      0.98466349
H       0.91837309      0.25515932     -0.38173312
