31
CNC(=O)N(c1ccccc1)c1ccccc1
C      -1.69548934      3.65156559      0.16270371
N      -1.36902555      2.25198047      0.06490245
C      -0.05203260      1.85094632     -0.09144361
O       0.84157267      2.68649565     -0.22528188
N       0.14292590      0.45306823     -0.04524689
C      -0.90630203     -0.48137669     -0.34324411
C      -1.08602383     -1.63382560      0.44011620
C      -2.12000318     -2.53188252      0.16361971
C      -2.98904613     -2.28951157     -0.89750215
C      -2.82698541     -1.14969494     -1.68162103
C      -1.79438800     -0.25006507     -1.40470170
C       1.46162023     -0.08574766      0.19688020
C       1.88399814     -1.30065606     -0.37472746
C       3.16151952     -1.81534796     -0.12837615
C       4.04643328     -1.12278028      0.69110326
C       3.65643240      0.08607992      1.25804350
C       2.37864813      0.59970425      1.01003033
H      -2.78093391      3.75951396      0.10533685
H      -1.22219218      4.20497300     -0.65293943
H      -1.33381788      4.03420102      1.12094797
H      -1.94994310      1.60591177      0.58146642
H      -0.43472602     -1.83184341      1.28885710
H      -2.24747982     -3.41815988      0.78019773
H      -3.79223303     -2.98946461     -1.11425683
H      -3.50021769     -0.96138310     -2.51428698
H      -1.67361616      0.62084358     -2.04582427
H       1.23934152     -1.85366452     -1.05358851
H       3.46560802     -2.75169704     -0.58897783
H       5.04096952     -1.51803924      0.87946021
H       4.34479014      0.63808995      1.89288291
H       2.11059638      1.54176644      1.48250261
