16
CCOCCO
C      -2.10401653     -0.52408224      0.35017723
C      -1.38702479      0.37974183     -0.63668346
O      -0.00870684      0.03175212     -0.75778514
C       0.79924312      0.55458348      0.30464503
C       2.24516462      0.15268595      0.03156117
O       2.35014642     -1.27005990      0.00034193
H      -1.93539734     -1.57693724      0.10174149
H      -3.17984423     -0.32621049      0.34205122
H      -1.73725256     -0.37157707      1.36945873
H      -1.49855141      1.43570187     -0.36610796
H      -1.83534731      0.24699718     -1.62681961
H       0.47120499      0.12400749      1.25568977
H       0.71209426      1.64546950      0.33830195
H       2.57853622      0.52977660     -0.94032896
H       2.91171398      0.53244375      0.81063448
H       1.61803739     -1.56429283     -0.57687789
