22
CCOCCOCC
C       3.81589205      1.20250979      0.59856430
C       2.90475798      0.01774594      0.34649271
O       1.58563159      0.50562021      0.11235555
C       0.66899314     -0.56076027     -0.13386920
C      -0.72268638      0.01391683     -0.37600207
O      -1.63513696     -1.05507739     -0.62555391
C      -2.95736290     -0.60726773     -0.91718063
C      -3.71578761     -0.24769382      0.34800548
H       3.81198606      1.88157707     -0.26048116
H       4.84213707      0.87319786      0.78370468
H       3.46840807      1.77930530      1.46208575
H       3.25379555     -0.54060164     -0.52906248
H       2.90508914     -0.64438940      1.21927757
H       0.64493976     -1.24180892      0.72532664
H       0.99006636     -1.13777781     -1.00940612
H      -1.03609148      0.59198990      0.49993767
H      -0.69586979      0.69508585     -1.23487526
H      -3.47118610     -1.43795600     -1.41215425
H      -2.93701797      0.23082210     -1.62287503
H      -4.76164623     -0.02308421      0.11915794
H      -3.27923551      0.62665847      0.83957664
H      -3.67967584     -1.07256851      1.06697517
