9
CCC#N
C      -0.89540253     -0.45820082      0.04086553
C       0.18488232      0.59975751     -0.10494236
C       1.52235719      0.02273279      0.07500514
N       2.58063818     -0.43147305      0.21693692
H      -0.86456879     -0.92107609      1.03329427
H      -1.88561661     -0.01222807     -0.09594534
H      -0.77405004     -1.25285501     -0.70339070
H       0.11095212      1.06146910     -1.09565571
H       0.02080815      1.39187364      0.63383226
