54
CCc1ccc(C(=O)NN(C(=O)c2cc(C)cc(C)c2)C(C)(C)C)cc1
C       5.56172382      1.82213901     -2.32231926
C       4.44838796      2.77757600     -1.91665101
C       3.39994437      2.08921119     -1.07918606
C       2.30512650      1.46094032     -1.68792393
C       1.34063036      0.80995751     -0.91569979
C       1.47202155      0.77413364      0.47746364
C       0.46689710      0.09922821      1.33561898
O       0.14798026      0.59905606      2.40741147
N      -0.02597133     -1.09634888      0.83937515
N      -1.13520957     -1.70916733      1.45919326
C      -2.43180215     -1.40379853      1.02862173
O      -3.46771905     -1.90942967      1.45757520
C      -2.56044293     -0.42751174     -0.07214130
C      -2.51461200      0.94225837      0.20541910
C      -2.58590101      1.86345609     -0.84337651
C      -2.48469862      3.33245944     -0.55960204
C      -2.69727096      1.39163021     -2.16202308
C      -2.78050966      0.01626080     -2.43906514
C      -2.89684421     -0.46222672     -3.85718647
C      -2.70543144     -0.89606899     -1.38200684
C      -0.82459692     -2.68768176      2.54037099
C      -1.38939790     -4.07725013      2.16903469
C      -1.45370222     -2.21973062      3.86866798
C       0.69343499     -2.87707742      2.78228477
C       2.55125754      1.41430073      1.09401432
C       3.51621943      2.05927104      0.31745864
H       5.17247919      0.98950177     -2.91915630
H       6.06607152      1.40041510     -1.44424330
H       6.31064488      2.34608711     -2.92349084
H       4.86925766      3.62431735     -1.36035634
H       3.98249635      3.20501616     -2.81266722
H       2.18956038      1.49228400     -2.76916611
H       0.47999570      0.37051805     -1.41143656
H       0.24818870     -1.46231030     -0.06562662
H      -2.40375233      1.28083132      1.23536609
H      -3.03491307      3.58942994      0.35356849
H      -2.91603377      3.92050054     -1.37505804
H      -1.43706271      3.61994530     -0.43737369
H      -2.73648062      2.10505972     -2.98341587
H      -3.30799240     -1.47523141     -3.90219418
H      -1.91064908     -0.46336630     -4.33267733
H      -3.56881090      0.18797688     -4.42879894
H      -2.76368242     -1.96572976     -1.56701154
H      -0.99058537     -4.41382735      1.20428669
H      -2.48113621     -4.07851858      2.09118144
H      -1.12417202     -4.82798037      2.92210471
H      -1.09813001     -1.21822197      4.14141711
H      -2.54731746     -2.17442892      3.81275938
H      -1.20001656     -2.89966353      4.68994863
H       0.87799490     -3.62587828      3.56168864
H       1.20306340     -3.21991654      1.87416928
H       1.17443589     -1.95038149      3.11122072
H       2.64110951      1.41219728      2.17889171
H       4.35592293      2.54578742      0.81074148
