32
CCNc1nc(NC(C)C)nc(SC)n1
C      -4.35707351     -0.88657903      0.74168311
C      -3.22835403     -0.12990062      0.05927107
N      -2.04185261     -0.18177861      0.89365080
C      -0.91318911      0.41539367      0.34351726
N       0.23852415     -0.17514318      0.62499637
C       1.32733486      0.39167990      0.12129970
N       2.57940708     -0.14441168      0.37203900
C       2.68132595     -1.58411231      0.56213693
C       4.04825073     -1.88566457      1.17774380
C       2.53235547     -2.31969660     -0.76956578
N       1.31711657      1.47338195     -0.63732480
C       0.11523088      1.99131854     -0.85907761
S       0.06543334      3.43973395     -1.89196593
C      -1.47968141      4.17909640     -1.31027640
N      -1.03060232      1.49909287     -0.40583227
H      -4.08858389     -1.93690106      0.89750229
H      -5.26376675     -0.85238432      0.12983033
H      -4.58637805     -0.45090243      1.72000487
H      -3.54881561      0.90682126     -0.09866578
H      -3.03291793     -0.58406257     -0.91977115
H      -1.75395805     -1.10966044      1.18750602
H       3.22786687      0.26765337     -0.29036631
H       1.92000943     -1.94308273      1.26579274
H       4.16426117     -1.36806369      2.13647731
H       4.86359144     -1.55592811      0.52383591
H       4.16773367     -2.95933568      1.35676167
H       2.65587417     -3.39922079     -0.63293951
H       3.27831065     -1.98137959     -1.49756901
H       1.54331175     -2.15138937     -1.20864949
H      -1.61648143      5.14732022     -1.79974288
H      -1.44946704      4.34206496     -0.22922553
H      -2.33481645      3.54604029     -1.56307673
