25
CON(C)C(=O)Nc1ccc(Cl)c(Cl)c1
C       3.19579404     -1.35345629      0.21736185
O       2.47077155     -0.58123341     -0.74206034
N       2.24242046      0.71081985     -0.18508155
C       3.11932822      1.69231236     -0.79248832
C       0.88767308      1.05097381     -0.04313365
O       0.51821394      2.21331528      0.09670076
N       0.06635031     -0.05930367     -0.05583931
C      -1.32552373     -0.12672301      0.11354292
C      -2.12017475      0.96941485      0.45268098
C      -3.50312887      0.82238755      0.61008969
C      -4.10464153     -0.42427832      0.43249075
Cl     -5.81500614     -0.53391607      0.64327816
C      -3.31548934     -1.52745372      0.09704251
Cl     -3.98120058     -3.10564103     -0.13721486
C      -1.93214685     -1.37651503     -0.05987407
H       3.34380333     -2.35532457     -0.19427399
H       4.17538379     -0.90505094      0.40896740
H       2.62822821     -1.43793240      1.14951197
H       4.15491655      1.34901205     -0.72491455
H       3.01744087      2.65109470     -0.27623887
H       2.84059580      1.82169990     -1.84289394
H       0.56358996     -0.89821130     -0.32614696
H      -1.69375908      1.95681635      0.60652324
H      -4.10192967      1.69142150      0.87337682
H      -1.33150956     -2.24422844     -0.32140664
