22
CC(Oc1cccc(Cl)c1)C(=O)O
C      -2.84133160      0.84915941     -1.06963517
C      -1.65125698      0.58922731     -0.15498594
O      -0.80528023     -0.35841142     -0.81951177
C       0.54340136     -0.26140312     -0.60289729
C       1.14590245      0.30799389      0.52099271
C       2.53929004      0.31945248      0.63849872
C       3.33250453     -0.24527515     -0.35965523
C       2.72817580     -0.82653867     -1.47113290
Cl      3.70161408     -1.53385875     -2.70082653
C       1.33969824     -0.84176525     -1.59289123
C      -2.16868137      0.02945852      1.16962590
O      -2.73722865      0.69694111      2.02139165
O      -1.95324049     -1.30150932      1.31078726
H      -3.39006999     -0.07762754     -1.27322291
H      -3.53803101      1.56700473     -0.62518707
H      -2.50409445      1.23857388     -2.03614385
H      -1.13007431      1.53629536      0.02749027
H       0.56750431      0.73743822      1.33409966
H       3.00633482      0.76413252      1.51473545
H       4.41496848     -0.23432782     -0.26198706
H       0.87478959     -1.29875383     -2.46269025
H      -1.47489461     -1.65620658      0.52979227
