18
O=C/C=C/c1ccccc1
O       4.49285951      1.02815816     -0.84069618
C       3.67311359      0.40942161     -0.17374166
C       2.22487393      0.52658991     -0.43709810
C       1.35174798     -0.16370890      0.31054768
C      -0.11629414     -0.14470842      0.16242725
C      -0.88243452     -0.93313515      1.03585414
C      -2.27741585     -0.95935495      0.94785990
C      -2.92893270     -0.19649088     -0.01627883
C      -2.18589759      0.59126189     -0.89087438
C      -0.78990828      0.61722881     -0.80249440
H       3.97174516     -0.26033138      0.64956251
H       1.95471673      1.18861916     -1.24880482
H       1.72332064     -0.80592808      1.10729728
H      -0.40292027     -1.54074224      1.80042219
H      -2.85310317     -1.57617624      1.63320511
H      -4.01333694     -0.21537817     -0.08648130
H      -2.69134898      1.18875289     -1.64560647
H      -0.25078509      1.24592200     -1.50509992
