15
Nc1ncnc2nc[nH]c12
N      -1.92200330     -1.26476497      0.50069614
C      -1.12096404     -0.15819505      0.26916309
N      -1.68898775      1.05789530      0.27393563
C      -0.90676832      2.13213903      0.02937005
N       0.40613599      2.15875736     -0.23414884
C       0.95517603      0.93184028     -0.22354437
N       2.27633401      0.64707456     -0.44680226
C       2.36857459     -0.65821122     -0.32003870
N       1.15755748     -1.22640199     -0.03300004
C       0.23308049     -0.22169200      0.02092873
H      -2.89734081     -0.97956107      0.47424677
H      -1.71036504     -2.06745771     -0.07486034
H      -1.40782137      3.09540884      0.04595674
H       3.27543526     -1.24068248     -0.41886315
H       0.98195680     -2.20614889      0.13696056
