19
Cc1cc([N+](=O)[O-])ccc1N
C      -1.73681752     -1.25171225      1.06394728
C      -0.66488200     -0.44459042      0.38196105
C       0.62153822     -0.99796389      0.24632019
C       1.64867868     -0.25463738     -0.34846843
N       2.98931842     -0.83794371     -0.48153113
O       3.87102649     -0.14378758     -1.00811840
O       3.16154128     -1.99182603     -0.06279884
C       1.41039717      1.04511535     -0.79989111
C       0.13109612      1.58982387     -0.66786783
C      -0.92614231      0.84229177     -0.12805859
N      -2.15697775      1.47769118      0.08614168
H      -1.34744949     -2.20373709      1.44014515
H      -2.14067253     -0.70255669      1.92062791
H      -2.54424050     -1.47835692      0.36034940
H       0.81481086     -2.00217792      0.62027331
H       2.20080704      1.64834044     -1.24065744
H      -0.03815407      2.61390975     -0.99391789
H      -2.34562419      2.24473783     -0.55196141
H      -2.94825396      0.84737968      0.16350510
