29
CN(C)P(=O)(N(C)C)N(C)C
C       2.53233532      0.70061044      0.01170219
N       1.49182376     -0.32048569     -0.15296183
C       2.09673398     -1.61286092      0.18427001
P       0.05939471      0.02558857      0.61444910
O       0.28784525      0.40246010      2.05408399
N      -0.90998663     -1.30516393      0.45583792
C      -2.05060606     -1.36689240      1.36552037
C      -1.32164707     -1.75583658     -0.86648610
N      -0.70684002      1.20344774     -0.25291523
C      -0.93546326      2.47382184      0.42423089
C      -0.40312969      1.43230543     -1.65734776
H       3.38031904      0.50645958     -0.65436119
H       2.15660330      1.69502916     -0.24370181
H       2.89829180      0.74253425      1.04372130
H       2.34254818     -1.67500699      1.25009517
H       1.42422174     -2.44095103     -0.05659342
H       3.00960610     -1.78647182     -0.39692713
H      -2.79240948     -0.59683672      1.12864570
H      -1.72726492     -1.22146312      2.40124203
H      -2.53886179     -2.34718840      1.33051649
H      -1.73927840     -2.76809136     -0.82366625
H      -0.46764870     -1.80686398     -1.54852409
H      -2.07305630     -1.09308435     -1.30833554
H      -1.40552469      2.30961821      1.39950306
H      -1.61904198      3.11615624     -0.14203840
H       0.00381545      3.01405859      0.58129818
H      -0.28670277      0.49116294     -2.20155504
H      -1.22090337      1.97125017     -2.14896947
H       0.51482648      2.01269400     -1.79073313
