30
C1CN(SSN2CCOCC2)CCO1
C       3.72848555      0.32778660     -0.33509646
C       3.04784676     -1.04269831     -0.43227786
N       1.62646750     -0.97542569     -0.03498211
S       0.64042957     -2.27843013     -0.37490986
S      -0.34986515     -1.48077594     -1.98981167
N      -1.47043767     -0.58156787     -1.17016176
C      -1.46538273      0.88527569     -1.23880182
C      -2.44258006      1.49488076     -0.22667957
O      -3.80371830      1.10453007     -0.43963070
C      -3.93122443     -0.15681020     -1.10500747
C      -2.78393903     -1.12712891     -0.79518820
C       1.52606195     -0.35389763      1.30115642
C       2.24701001      0.99797026      1.35332457
O       3.62452458      0.86767577      0.98693755
H       3.29644159      1.03764062     -1.05105011
H       4.79345633      0.22947928     -0.56872585
H       3.14096885     -1.39836761     -1.46566458
H       3.57270443     -1.75755200      0.21493950
H      -0.46049900      1.27216850     -1.03229848
H      -1.74594356      1.20286915     -2.25105231
H      -2.16541916      1.21072993      0.79562687
H      -2.40372738      2.58781593     -0.27852689
H      -4.88598089     -0.59438506     -0.79563695
H      -3.99763257      0.03174373     -2.18322748
H      -2.98282877     -2.07766014     -1.30507453
H      -2.76840696     -1.33375428      0.28200265
H       1.96097000     -1.02863482      2.05012248
H       0.47498667     -0.19089487      1.56959326
H       2.21248823      1.39656007      2.37231815
H       1.76474362      1.73085709      0.69492725
