28
CC(C)(C)OOC(C)(C)C
C       2.24574537      0.73612511     -1.27984072
C       1.76551072     -0.01554626     -0.03403739
C       1.68645203      0.91351761      1.18145938
C       2.73621090     -1.16238934      0.26988395
O       0.49433593     -0.63807494     -0.28488891
O      -0.46594667      0.42299577     -0.58020271
C      -1.75959291     -0.02928978     -0.14630201
C      -1.77001370     -0.28046982      1.36487066
C      -2.72948193      1.11145155     -0.47478457
C      -2.17347081     -1.28370607     -0.92270630
H       2.23290772      0.08105912     -2.15825759
H       3.26173200      1.12295230     -1.14775830
H       1.59204924      1.58376646     -1.51288728
H       1.01268213      1.75754080      0.99815036
H       1.29122610      0.38073268      2.05351144
H       2.67022579      1.31976682      1.43934663
H       2.39485700     -1.74262934      1.13508465
H       3.74702798     -0.79533426      0.47616924
H       2.78709589     -1.86348036     -0.57130957
H      -1.09925301     -1.10174557      1.63969612
H      -1.42125147      0.60436795      1.90889801
H      -2.77395590     -0.53392508      1.72154237
H      -2.43333742      2.03419131      0.03768200
H      -3.75662705      0.86807145     -0.18362377
H      -2.71754870      1.33671250     -1.54755673
H      -1.51972701     -2.13175247     -0.69127241
H      -3.20149590     -1.57934554     -0.68803403
H      -2.09635632     -1.11556263     -2.00283255
