32
CC(C)N(C(=O)SCC(Cl)=CCl)C(C)C
C      -2.13833357      1.49817900     -1.47366647
C      -0.97818915      1.47635843     -0.47384568
C      -1.13611531      2.55610767      0.59943796
N      -0.78368358      0.13003647      0.12877379
C       0.39487003     -0.62529453      0.03900279
O       0.52481283     -1.73882542      0.53489647
S       1.75012910      0.08177921     -0.83016549
C       2.96714074     -1.24758631     -0.60181716
C       4.25697715     -0.88529086     -1.28363956
Cl      4.31231016     -1.22750979     -2.99075332
C       5.35661466     -0.38632482     -0.70685542
Cl      5.51057505     -0.00209072      0.95549117
C      -1.91315530     -0.43618856      0.90468646
C      -1.57387274     -0.63986907      2.38438284
C      -2.48209414     -1.70972768      0.27363015
H      -2.01042784      0.71571786     -2.22935314
H      -2.17990815      2.46300468     -1.99069557
H      -3.10844345      1.34315704     -0.99222641
H      -0.09808509      1.75951921     -1.05210772
H      -0.28967586      2.53606499      1.29432851
H      -1.17471166      3.55061647      0.14222605
H      -2.05127181      2.42579828      1.18522625
H       3.12033294     -1.41237717      0.46957129
H       2.57659866     -2.18502295     -1.01451384
H       6.26753605     -0.16242203     -1.24857234
H      -2.72633202      0.29706879      0.88784916
H      -0.84843039     -1.44270798      2.54261283
H      -1.15785115      0.27622423      2.81686751
H      -2.47553559     -0.89973689      2.94963072
H      -3.40467748     -2.00872079      0.78290352
H      -1.78847333     -2.55312363      0.33321622
H      -2.71862978     -1.54681317     -0.78316442
