22
NCc1ccc(CN)cc1
N      -3.66458029     -0.44568859      0.05623941
C      -2.80444723      0.52840842     -0.60487835
C      -1.35150876      0.26861615     -0.30190794
C      -0.59748129     -0.58942758     -1.11338721
C       0.74289737     -0.85002894     -0.81828818
C       1.35150869     -0.26861551      0.30191068
C       2.80444766     -0.52840661      0.60487968
N       3.66457955      0.44568696     -0.05624493
C       0.59748111      0.58942771      1.11339030
C      -0.74289749      0.85002927      0.81829117
H      -3.38360272     -1.38007068     -0.23859991
H      -3.48124018     -0.41359171      1.05838945
H      -3.08065643      1.53940938     -0.28400498
H      -2.97503217      0.49390302     -1.68704493
H      -1.05104440     -1.05886966     -1.98383855
H       1.31086551     -1.51307044     -1.46757190
H       3.08065606     -1.53940953      0.28401091
H       2.97503513     -0.49389523      1.68704569
H       3.38360039      1.38007056      0.23858769
H       3.48124046      0.41358230     -1.05839489
H       1.05104409      1.05886939      1.98384194
H      -1.31086506      1.51307133      1.46757485
