42
CCC(c1ccc(O)cc1)C(CC)c1ccc(O)cc1
C       2.60789956     -2.62989766      1.12793171
C       1.35642222     -2.49646893      0.26590139
C       0.64127658     -1.13097287      0.43966850
C       1.50171465      0.05297126      0.00575152
C       2.19326009      0.07531279     -1.21529465
C       2.96547221      1.18102431     -1.57879676
C       3.05256315      2.27278624     -0.72620687
O       3.81401059      3.33175538     -1.12291937
C       2.38026092      2.27845984      0.48917632
C       1.61009134      1.17089022      0.85224846
C      -0.79462405     -1.15648943     -0.19752703
C      -0.81443370     -1.26508068     -1.74127537
C      -2.19985371     -1.58348667     -2.29681840
C      -1.66715569     -0.02860692      0.35498406
C      -1.66032655      1.26288120     -0.19450077
C      -2.45753408      2.27326812      0.34740012
C      -3.26578663      2.00171761      1.44253411
O      -4.02744729      3.01740646      1.93960348
C      -3.28869716      0.73363095      2.01031044
C      -2.48897139     -0.27620151      1.46869036
H       2.37407700     -2.47311237      2.18574997
H       3.02979669     -3.63455006      1.02166203
H       3.38010860     -1.91276921      0.83465812
H       1.62720525     -2.68183503     -0.77863967
H       0.66733828     -3.30005138      0.55463781
H       0.49163408     -1.03008155      1.52599739
H       2.13936843     -0.76337687     -1.90402521
H       3.49580595      1.18924806     -2.52667339
H       3.77144209      4.01462825     -0.43378423
H       2.43665503      3.12735997      1.16262817
H       1.07856616      1.19107400      1.80215422
H      -1.25959471     -2.08938088      0.15698835
H      -0.45291680     -0.34709771     -2.21551099
H      -0.14293924     -2.06893286     -2.06217287
H      -2.91279095     -0.77899348     -2.09433066
H      -2.14616750     -1.71426872     -3.38249536
H      -2.59192681     -2.50990737     -1.86520238
H      -1.02381050      1.50518821     -1.04231848
H      -2.44261562      3.26958606     -0.08481207
H      -4.55076818      2.67477258      2.68211861
H      -3.91464249      0.51165079      2.86839615
H      -2.51196582     -1.26405013      1.92411322
