26
CCCOC(=O)c1ccc(N)cc1
C       4.91613458      0.00166041      0.14830950
C       3.45486776      0.23365485      0.48757909
C       2.52594500     -0.45130211     -0.50714359
O       1.17495813     -0.17987526     -0.11064706
C       0.23624952     -0.73400241     -0.91801564
O       0.45759273     -1.41561254     -1.90657094
C      -1.13219752     -0.40299515     -0.43587608
C      -1.36217610      0.38874249      0.69514741
C      -2.67180319      0.66991079      1.10145782
C      -3.76542548      0.13531869      0.41571241
N      -5.06618933      0.51953786      0.75586460
C      -3.53120075     -0.60421644     -0.74572815
C      -2.22616558     -0.89139423     -1.15954798
H       5.15571076      0.39611308     -0.84431377
H       5.55937842      0.50382881      0.87762731
H       5.15704633     -1.06608679      0.16129765
H       3.24457647     -0.13315088      1.49943324
H       3.24325663      1.30950430      0.50725846
H       2.69856697     -1.53397081     -0.50056144
H       2.69729137     -0.05765438     -1.51595707
H      -0.53582703      0.80682833      1.26413312
H      -2.82924594      1.31392523      1.96306646
H      -5.78429418     -0.12209076      0.43402274
H      -5.18261252      0.76842925      1.73315713
H      -4.36462290     -0.96636590     -1.34234431
H      -2.06981416     -1.48636494     -2.05736092
