40
C[Si]1(C)O[Si](C)(C)O[Si](C)(C)O[Si](C)(C)O1
C      -2.67331173     -0.23674679      1.48987205
Si     -2.09938487     -0.24240104     -0.29700499
C      -3.62754830     -0.45204208     -1.37542434
O      -1.33547855      1.18365153     -0.69362588
Si     -0.25233296      2.29359790     -0.08830337
C      -1.08403629      3.37061536      1.20813310
C       0.33653757      3.42380765     -1.46971624
O       1.04083723      1.49452521      0.59051483
Si      2.09938515      0.24240113      0.29700442
C       3.62754749      0.45204237      1.37542558
C       2.67331347      0.23674797     -1.48987210
O       1.33547915     -1.18365187      0.69362422
Si      0.25233309     -2.29359794      0.08830224
C      -0.33653727     -3.42380712      1.46971599
C       1.08403516     -3.37061684     -1.20813379
O      -1.04083739     -1.49452546     -0.59051560
H      -1.82698451     -0.11734858      2.17272853
H      -3.17957143     -1.17524607      1.73458399
H      -3.37325549      0.58528577      1.66680391
H      -3.35063131     -0.46231909     -2.43364338
H      -4.32971763      0.37041314     -1.21068381
H      -4.13578603     -1.39236195     -1.14281585
H      -0.38576231      4.12155516      1.58922275
H      -1.42809393      2.76410819      2.05092345
H      -1.94803294      3.88864168      0.78173167
H       1.06388311      4.14789695     -1.09113627
H       0.81108174      2.84422518     -2.26684504
H      -0.50489161      3.97408497     -1.90089878
H       4.13578331      1.39236383      1.14281927
H       4.32971861     -0.37041106      1.21068390
H       3.35062964      0.46231691      2.43364436
H       3.37325586     -0.58528571     -1.66680434
H       1.82698646      0.11735196     -2.17272916
H       3.17957496      1.17524653     -1.73458277
H       0.50489281     -3.97408033      1.90090206
H      -1.06387916     -4.14789981      1.09113502
H      -0.81108601     -2.84422477      2.26684225
H       1.42809206     -2.76411178     -2.05092583
H       0.38576094     -4.12155787     -1.58921994
H       1.94803193     -3.88864326     -0.78173212
