19
C=CCSS(=O)CC=C
C      -4.51145673      0.33001309      0.51344676
C      -3.49901634     -0.18778271     -0.19557644
C      -2.12635666     -0.45159603      0.34982605
S      -0.92985588      0.59354360     -0.52708702
S       0.79893662      0.23444761      0.54526500
O       0.69618857     -1.25462528      0.70018399
C       2.07363851      0.59405210     -0.71110165
C       3.44349112      0.33446597     -0.15715805
C       4.41265634      1.25436829     -0.05973996
H      -5.48449738      0.48642129      0.05748814
H      -4.39568824      0.61109564      1.55570664
H      -3.67264070     -0.46053769     -1.23494672
H      -2.08041905     -0.23797851      1.42299543
H      -1.87935216     -1.50720389      0.19928975
H       1.95670014      1.63812087     -1.01930583
H       1.89908458     -0.05022206     -1.57866915
H       3.64658052     -0.68419555      0.17203357
H       4.26682670      2.28153485     -0.37990444
H       5.38518005      0.99173498      0.34725394
