36
CCC1(C2=CCCCCC2)C(=O)NC(=O)NC1=O
C      -2.47768941     -2.54308043     -1.23067003
C      -1.12795573     -1.84194486     -1.07729052
C      -1.16569919     -0.52257074     -0.25933301
C       0.29321426      0.05860987     -0.17934550
C       0.70955043      1.07206496     -0.97434006
C       2.01665163      1.82128764     -0.96578611
C       2.72252932      1.89819255      0.38318060
C       3.45384744      0.61924014      0.76842748
C       2.70715297     -0.67157008      0.45648916
C       1.22067186     -0.64123771      0.81636903
C      -2.11530661      0.48347854     -0.93636750
O      -2.35425351      0.50499179     -2.14360615
N      -2.66674952      1.43886070     -0.12557250
C      -2.85977535      1.29928034      1.21079453
O      -3.68345696      1.98143878      1.81178024
N      -2.17530745      0.30703991      1.83402582
C      -1.64819004     -0.77168584      1.17894890
O      -1.54197460     -1.84679622      1.76749471
H      -2.35097918     -3.46270387     -1.81178349
H      -3.20563482     -1.92069949     -1.75787510
H      -2.90304199     -2.82184449     -0.26267006
H      -0.73362234     -1.64251980     -2.08273884
H      -0.43921323     -2.56112141     -0.61774815
H       0.03886611      1.46266844     -1.74026520
H       1.78974271      2.85272665     -1.26677397
H       2.67965481      1.41564855     -1.73858276
H       3.45428631      2.71543943      0.35922528
H       2.00171721      2.16377831      1.16727981
H       3.67971076      0.65975353      1.84133538
H       4.42376550      0.58753642      0.25639906
H       3.19080751     -1.48136811      1.01780366
H       2.83051442     -0.92978052     -0.60309318
H       1.07750750     -0.20836023      1.81395224
H       0.92380512     -1.69332409      0.89094589
H      -3.28841516      2.09167219     -0.58287753
H      -2.47673081      0.12689916      2.78226789
