27
CCN(CC)C(=O)c1cccnc1
C      -0.73751876      1.50270448     -1.85804807
C      -0.57926258      0.09725157     -1.29857304
N      -1.06493467     -0.01539939      0.08258026
C      -2.51185041     -0.12512148      0.27775787
C      -3.01196604     -1.55515647      0.13229904
C      -0.25080140     -0.28709398      1.18651750
O      -0.68387982     -0.63824787      2.28170173
C       1.20752010     -0.15435338      1.05906462
C       1.81654518      1.06507429      0.76654709
C       3.20546640      1.12123274      0.68266229
C       3.92718076     -0.04311540      0.90612861
N       3.36250728     -1.23345997      1.21105583
C       2.00963287     -1.25942476      1.29908361
H      -0.21684106      2.24010031     -1.24082785
H      -0.32734056      1.55375689     -2.87148377
H      -1.79010124      1.79755439     -1.90775966
H      -1.13904250     -0.61358618     -1.91641205
H       0.46971511     -0.20333786     -1.36429938
H      -2.76350072      0.24066652      1.28007830
H      -3.02073189      0.52870697     -0.43740736
H      -4.09223876     -1.59711871      0.30242698
H      -2.52712096     -2.22130971      0.85303915
H      -2.81077463     -1.94633682     -0.86981123
H       1.22145971      1.96155260      0.62544201
H       3.71562660      2.05166928      0.45866067
H       5.01261133     -0.04752154      0.85232744
H       1.57964066     -2.21968651      1.57073019
