44
CC1COC(Cn2cncn2)(c2ccc(Oc3ccc(Cl)cc3)cc2Cl)O1
C      -3.56889434      1.18624964      2.85513681
C      -2.47153739      1.09073098      1.81691793
C      -2.64016213      2.03799589      0.65945078
O      -1.89619564      1.42497293     -0.39531911
C      -1.88084954      0.01326471     -0.10899475
C      -2.65432874     -0.79967836     -1.16513263
N      -4.01286509     -0.33957115     -1.35851857
C      -4.43577820      0.68323108     -2.15175199
N      -5.74570666      0.76108333     -2.10636801
C      -6.08502551     -0.27407997     -1.28265043
N      -5.05918138     -0.98630191     -0.80989803
C      -0.42188285     -0.47367741     -0.06583462
C      -0.00784890     -1.33390364      0.97684508
C       1.30353687     -1.80795897      1.05898806
C       2.23747744     -1.42889122      0.10308182
O       3.50319511     -1.95447345      0.22036462
C       4.56231778     -1.09235133      0.05024611
C       4.64414641      0.13909594      0.70709555
C       5.76422645      0.95175530      0.51819720
C       6.80040028      0.52213847     -0.31108444
Cl      8.18005969      1.52383810     -0.54132730
C       6.73031683     -0.71631179     -0.94881767
C       5.61086401     -1.52931536     -0.76101865
C       1.85231963     -0.61676641     -0.96178303
C       0.53649190     -0.14097174     -1.04648332
Cl      0.17280973      0.82914866     -2.43350255
O      -2.48965654     -0.19096182      1.18657421
H      -3.41561025      0.43759652      3.63967747
H      -4.54941742      0.97803703      2.41294610
H      -3.59329448      2.17807060      3.31613120
H      -1.48977784      1.22144093      2.28754341
H      -2.25315142      3.03990603      0.86389579
H      -3.68327350      2.12283747      0.33826615
H      -2.18325380     -0.74969414     -2.15230152
H      -2.70906388     -1.85754888     -0.87846557
H      -3.76726869      1.32264372     -2.71217076
H      -7.10756427     -0.51680959     -1.02359048
H      -0.71246298     -1.65150585      1.74553444
H       1.59234458     -2.46958547      1.87218843
H       3.84898905      0.46901145      1.36997699
H       5.82556459      1.91194487      1.02349151
H       7.54236229     -1.05474801     -1.58668622
H       5.55482901     -2.49885541     -1.24896419
H       2.57179980     -0.36103177     -1.73586378
