22
c1cc2c3c(cccc3c1)CC2
C       2.48879069     -1.13668800     -0.33492954
C       1.32949859     -1.92908084     -0.37905910
C       0.09898440     -1.31791121     -0.20601405
C       0.04740932      0.03564565      0.00230519
C      -1.24963141      0.45272338      0.15030706
C      -1.50728092      1.79540342      0.37045516
C      -0.42479211      2.68863310      0.43487999
C       0.90185624      2.23854892      0.27994141
C       1.16199615      0.87371742      0.05627585
C       2.41328953      0.25414785     -0.11940178
C      -2.20468630     -0.69851478      0.03847008
C      -1.27559220     -1.91834790     -0.20700279
H       3.46194718     -1.60362721     -0.46930117
H       1.40283903     -2.99916079     -0.54588257
H      -2.52383352      2.15627269      0.49159286
H      -0.61266440      3.74603935      0.60726766
H       1.72057458      2.95063699      0.33419124
H       3.32546198      0.84353755     -0.08984511
H      -2.89333328     -0.55922032     -0.80120364
H      -2.77797082     -0.82625701      0.96243757
H      -1.38374526     -2.65676559      0.59407803
H      -1.49911747     -2.38973268     -1.16956235
