29
CC1(C)C2CCC1(C)[C@@H](O)C2
C       2.12443096      0.44650033      0.27674366
C       0.86798922     -0.29261472     -0.22551221
C       1.27707253     -0.98376615     -1.54211035
C       0.23477421     -1.24900721      0.82023979
C      -1.05601338     -1.73855325      0.12623606
C      -1.51804492     -0.49619370     -0.65407733
C      -0.43559002      0.55987337     -0.29196292
C      -0.43430769      1.74306911     -1.24200731
C      -0.64500043      0.96473748      1.19860613
O      -1.98576087      1.30469583      1.50704708
C      -0.21582578     -0.30333841      1.95983635
H       2.46735244      1.17452193     -0.46722356
H       2.94111701     -0.26489231      0.44662579
H       1.98903052      0.99359165      1.21174944
H       0.47335925     -1.53217492     -2.03751380
H       1.64730370     -0.24853104     -2.26567022
H       2.08282227     -1.70414682     -1.35872391
H       0.87482287     -2.06456699      1.16498876
H      -1.81484836     -2.07444489      0.84079031
H      -0.85463918     -2.57309712     -0.55354136
H      -2.53002984     -0.19318409     -0.36715111
H      -1.54559374     -0.70384157     -1.72959545
H      -0.24181569      1.42660643     -2.27225166
H      -1.40081844      2.25776780     -1.23032609
H       0.33461011      2.47238497     -0.96746396
H      -0.01833206      1.81553289      1.48704546
H      -2.22308303      2.07787475      0.96789225
H       0.62397004     -0.08369998      2.62798540
H      -1.01895169     -0.73110339      2.56934477
