16
CCCCC=O
C      -2.14208258      0.75549940     -0.05835586
C      -0.68197750      0.57647387      0.32739800
C      -0.09976273     -0.70713809     -0.26897969
C       1.35356110     -0.92909772      0.13791795
C       2.26957631      0.06067075     -0.53307256
O       3.07655987      0.75334370      0.07880453
H      -2.25568550      0.81793462     -1.14533650
H      -2.53908347      1.67729172      0.37824759
H      -2.74904980     -0.08050771      0.30359101
H      -0.11359402      1.44706075     -0.01889916
H      -0.60041812      0.54923486      1.42024620
H      -0.18324276     -0.67497748     -1.36228556
H      -0.69317417     -1.56341824      0.07399280
H       1.47469191     -0.85851624      1.22386938
H       1.67544815     -1.92820519     -0.17490328
H       2.20823331      0.10435101     -1.63401820
