35
CC(CCl)OP(=O)(OC(C)CCl)OC(C)CCl
C       3.28129818      1.02198636      1.73904308
C       2.34443653      0.19175692      0.87025125
C       2.83151694      0.04679320     -0.57635339
Cl      2.95359109      1.61125649     -1.42701311
O       1.05793213      0.80239796      0.90440590
P      -0.22414807     -0.14762645      1.08383674
O      -0.24187054     -0.95309824      2.34232339
O      -1.47280678      0.84979292      0.90179838
C      -1.49348110      1.74061578     -0.21384680
C      -2.90065004      1.68246790     -0.79845984
C      -1.11236128      3.14152505      0.27095994
Cl     -0.99833100      4.31093685     -1.06329313
O      -0.23654701     -1.01790992     -0.26786000
C      -1.09323026     -2.15390928     -0.32456945
C      -1.53931192     -2.32717498     -1.77187390
C      -0.38777836     -3.39750112      0.23299374
Cl      1.13985855     -3.76236114     -0.61897338
H       4.30043118      0.62446888      1.71887378
H       3.30190602      2.07145707      1.42765038
H       2.92950726      1.01882438      2.77683235
H       2.28227938     -0.81177281      1.30868030
H       3.81842445     -0.42446935     -0.60899879
H       2.13885262     -0.56295863     -1.16115020
H      -0.78209037      1.40183012     -0.97602702
H      -3.64198352      2.02780637     -0.06927055
H      -2.99381097      2.28603259     -1.70548798
H      -3.16616004      0.64910028     -1.04668708
H      -0.14555868      3.12835648      0.78280365
H      -1.84520186      3.51778247      0.99290921
H      -1.98644277     -1.95778579      0.28116736
H      -2.17947060     -3.20671229     -1.88880799
H      -2.10040268     -1.44538670     -2.10012449
H      -0.68603581     -2.41523261     -2.45231715
H      -0.12164292     -3.26201361      1.28339758
H      -1.03071775     -4.27927513      0.15318721
