43
CN1CCC(=C2c3ccccc3C=Cc3ccccc32)CC1
C       4.68851611     -0.27167945      1.12563539
N       3.63972624      0.11871218      0.18492000
C       2.86599610     -1.05996911     -0.24396808
C       1.75617119     -0.69032852     -1.24296079
C       0.82085938      0.36903521     -0.67368131
C      -0.52982089      0.24463770     -0.57438894
C      -1.34822478      1.28672488      0.09662720
C      -1.51166953      2.54617047     -0.50372836
C      -2.28299572      3.52971566      0.11411141
C      -2.90552644      3.26005802      1.32963446
C      -2.76967666      2.00206651      1.92197643
C      -2.01020467      0.99485387      1.30618917
C      -1.91293623     -0.31230292      1.98543168
C      -1.84398161     -1.52402818      1.40567971
C      -1.85001477     -1.82009166     -0.04062748
C      -2.48527464     -2.99611985     -0.46942668
C      -2.53039435     -3.33259762     -1.82464255
C      -1.93991052     -2.49917311     -2.77041940
C      -1.29076249     -1.33520372     -2.36076717
C      -1.21798721     -1.00148804     -0.99816576
C       1.62818863      1.55772517     -0.16734027
C       2.74216738      1.11476936      0.79659444
H       5.37724144     -0.98442235      0.65863240
H       4.28248815     -0.72979814      2.03479915
H       5.28709801      0.59879902      1.41615707
H       2.42208706     -1.57010280      0.62199536
H       3.53715586     -1.77635845     -0.73367394
H       1.24224824     -1.61496840     -1.51706904
H       2.20505097     -0.29895207     -2.16524176
H      -1.03185941      2.76196781     -1.45548073
H      -2.39820740      4.50358877     -0.35411343
H      -3.50664877      4.02518672      1.81410149
H      -3.27889613      1.80859942      2.86342617
H      -1.92460347     -0.26651755      3.07241670
H      -1.80331909     -2.39780251      2.05269967
H      -2.96810381     -3.65371847      0.24995055
H      -3.03629825     -4.24115965     -2.14095714
H      -1.98526490     -2.75308323     -3.82607419
H      -0.83558644     -0.68623109     -3.10525934
H       2.07010920      2.07157629     -1.03101552
H       1.01941176      2.29931238      0.35577674
H       3.32192935      2.00352141      1.07494026
H       2.29172312      0.71907606      1.71730644
