26
CNC[C@H](O)c1ccc(O)c(O)c1
C      -2.78466765     -0.79448474      2.96799279
N      -2.43262346     -1.16664640      1.60156455
C      -1.35454294     -0.29327586      1.08975111
C      -0.92327118     -0.76243743     -0.32070677
O      -0.60677497     -2.15897498     -0.26070060
C       0.25316523      0.03367050     -0.84392505
C       0.03330382      1.29394180     -1.43353887
C       1.10222553      2.06265276     -1.90064572
C       2.39215708      1.57157784     -1.77921505
O       3.43818979      2.32138496     -2.23533676
C       2.62848458      0.32805598     -1.20162725
O       3.92509842     -0.09992840     -1.11772534
C       1.57098299     -0.44204030     -0.72952831
H      -1.93288870     -0.92067986      3.64393360
H      -3.58850928     -1.44500035      3.32613736
H      -3.13772957      0.24036778      3.02342994
H      -3.25901298     -1.05550082      1.01080601
H      -0.49426845     -0.36257351      1.76785968
H      -1.68497147      0.75180094      1.06050663
H      -1.76179082     -0.66645512     -1.02156626
H      -1.22886796     -2.51531476      0.40665964
H      -0.97684129      1.68545576     -1.53486861
H       0.93001845      3.03301073     -2.35596042
H       4.22649375      1.77311099     -2.04914387
H       3.91482544     -0.99885866     -0.74483355
H       1.75181564     -1.41285884     -0.27614315
