13
Oc1c(Cl)c(Cl)c(Cl)c(Cl)c1Cl
O      -2.55230093     -0.04145678      0.07963992
C      -1.17806215     -0.05027183      0.04054290
C      -0.50058053     -1.26982119      0.16896788
Cl     -1.42581114     -2.72532093      0.37292307
C       0.90325328     -1.29383844      0.13085331
Cl      1.75072507     -2.80646236      0.28992887
C       1.62015158     -0.09103662     -0.03629173
Cl      3.36223629     -0.11512901     -0.08427950
C       0.93222645      1.13193928     -0.16482848
Cl      1.80581556      2.62222412     -0.37149844
C      -0.46957122      1.14601831     -0.12556519
Cl     -1.38156515      2.61582675     -0.27754700
H      -2.86651711      0.87732869     -0.02284563
