14
N=C(N)N.O=[N+]([O-])O
N      -0.43149669      1.42640920      0.22390231
C      -0.13127341      0.19748172      0.04567860
N       1.10465413     -0.28685406     -0.14891413
N      -1.07029914     -0.76067549      0.03233523
O      -0.55939102      0.92307180     -0.64135179
N      -0.39885809     -0.12449458     -0.02465693
O      -1.16612815     -1.02449015      0.29302945
O       0.90985199     -0.30388398      0.38120964
H       0.41386095      1.99776426      0.17940822
H       1.23101641     -1.19994749      0.27393446
H       1.85162164      0.34107735      0.11929159
H      -0.97704618     -1.38460909     -0.75958146
H      -1.99103770     -0.33064640      0.03394519
H       1.21452527      0.52979691     -0.00823038
