23
CCc1cccc(C)c1N
C       2.92428763      0.32791647      0.41422689
C       2.03054705      0.23593082     -0.81393240
C       0.65792352     -0.30473661     -0.47659433
C       0.44959778     -1.68986460     -0.60406591
C      -0.79418825     -2.25175628     -0.33826426
C      -1.85229159     -1.43415777      0.04193499
C      -1.67314832     -0.04824921      0.18131618
C      -2.86119286      0.79477316      0.56157997
C      -0.39437831      0.51962366     -0.01827296
N      -0.23306571      1.91806931      0.03318404
H       3.06525645     -0.65562427      0.87528065
H       3.90949695      0.71536709      0.13599575
H       2.50017863      0.99440348      1.17222677
H       2.50832507     -0.41291030     -1.55912836
H       1.94758728      1.21503161     -1.29939187
H       1.26194118     -2.33804146     -0.92563368
H      -0.94349628     -3.32245353     -0.44662430
H      -2.82684454     -1.88329033      0.21909430
H      -3.78133390      0.20182789      0.60010228
H      -2.70962499      1.23674768      1.55153693
H      -3.01841377      1.58903904     -0.17535909
H       0.71954560      2.21199522      0.21566242
H      -0.88670859      2.38035895      0.65512598
