21
C=CC(=O)OCC(C)C
C       4.28017387     -0.00404905      0.19723043
C       2.98629895     -0.13156140      0.51727619
C       1.92871834      0.34857146     -0.39706129
O       2.11777509      0.88083591     -1.47777843
O       0.72966305      0.09052447      0.18107940
C      -0.39758168      0.50335027     -0.60389582
C      -1.68766444      0.13787686      0.14106538
C      -2.90543595      0.68012479     -0.60408294
C      -1.81120725     -1.37543279      0.33184070
H       4.59212791      0.45330993     -0.73826645
H       5.05609896     -0.35647805      0.86823075
H       2.67442921     -0.58713133      1.44900947
H      -0.34896888      1.58912661     -0.75140844
H      -0.36750837      0.00559090     -1.58114833
H      -1.65458331      0.59280307      1.13930246
H      -2.98356390      0.24694350     -1.60710170
H      -3.82840115      0.44836554     -0.06211402
H      -2.84439397      1.76851309     -0.70863103
H      -2.73543382     -1.62452974      0.86416409
H      -0.97558539     -1.77006500      0.91891384
H      -1.82495730     -1.89668904     -0.63141709
