18
COc1ccc(N)cc1
C       3.16152292      0.24350026      0.10832684
O       2.20823690     -0.76444286     -0.20300147
C       0.88943206     -0.41804066     -0.10329687
C       0.39246129      0.82317063      0.28978176
C      -0.99045611      1.04042142      0.34812108
C      -1.89173091      0.04059997     -0.02323228
N      -3.26701587      0.22864270      0.15167516
C      -1.38877070     -1.21701781     -0.35656033
C      -0.00942154     -1.43811217     -0.41749983
H       3.07586193      0.55814637      1.15366240
H       3.07025141      1.09745103     -0.57108106
H       4.15871236     -0.18568089     -0.02906025
H       1.04759599      1.64008638      0.57137437
H      -1.35706815      2.00519483      0.68865674
H      -3.83926824     -0.39274922     -0.41133625
H      -3.56158208      1.19701112      0.07708713
H      -2.06422505     -2.03943277     -0.57444838
H       0.36546380     -2.41874832     -0.69916875
