11
CCOC=O
C      -1.58602389     -0.25405551      0.21910078
C      -0.23884646      0.38913406     -0.04681671
O       0.76715627     -0.62758011      0.03416601
C       2.02655160     -0.17621075     -0.18643091
O       2.35619020      0.97168594     -0.43646875
H      -2.38893802      0.48660794      0.16768811
H      -1.78673510     -1.04463106     -0.51151998
H      -1.60059490     -0.72346574      1.20831411
H      -0.04385584      1.16305527      0.70410465
H      -0.23342298      0.83597526     -1.04739759
H       2.72851913     -1.02051530     -0.10473971
