29
O=C(O)C(O)(c1ccccc1)c1ccccc1
O       1.87205688      2.33208390     -0.31841630
C       0.86275914      2.20495868      0.36152127
O       0.33667966      3.25089048      1.06754854
C       0.01376579      0.90172227      0.54039437
O      -0.84986786      1.20445883      1.67907323
C      -0.84464309      0.70200174     -0.71507701
C      -0.22850616      0.40783623     -1.94682241
C      -0.98753057      0.22024427     -3.10345540
C      -2.37473264      0.32253486     -3.05134036
C      -3.00417317      0.61282847     -1.84372812
C      -2.24701772      0.80156022     -0.68484998
C       0.81837768     -0.34584720      0.93765246
C       0.16709055     -1.59583334      1.00853083
C       0.84863858     -2.74779113      1.40631618
C       2.19331001     -2.67478151      1.75303171
C       2.85380874     -1.45077021      1.70518082
C       2.17314434     -0.29573490      1.30749629
H      -0.47914493      2.91997584      1.51469988
H      -0.47658075      0.72103399      2.44102972
H       0.85632268      0.32525237     -2.01535189
H      -0.49289318     -0.00312211     -4.04547737
H      -2.96483837      0.17826018     -3.95256107
H      -4.08751398      0.69426826     -1.80308890
H      -2.76974095      1.02557702      0.24270696
H      -0.88721950     -1.68306306      0.74732896
H       0.32830594     -3.70170899      1.44258219
H       2.72742470     -3.57054417      2.05918318
H       3.90574832     -1.39166864      1.97559063
H       2.73696984      0.63537765      1.29030161
