30
COc1ccc(C(=O)c2ccccc2O)c(O)c1
C       5.22586895     -1.21194780      0.12610888
O       4.13578753     -1.14125780     -0.78572664
C       2.96779217     -0.61235177     -0.31032596
C       1.93176331     -0.55296347     -1.24767707
C       0.67786354     -0.04094258     -0.90005202
C       0.44551319      0.40537018      0.40487356
C      -0.87343919      0.94620969      0.81382106
O      -0.90247026      1.83717413      1.66673034
C      -2.15774126      0.46794579      0.24739806
C      -2.33175324     -0.86848823     -0.13744223
C      -3.55091693     -1.28889708     -0.67591278
C      -4.60267469     -0.38383022     -0.81971474
C      -4.44625505      0.93986510     -0.40970211
C      -3.23498059      1.35806382      0.13545962
O      -3.16808159      2.66207835      0.54795931
C       1.49874413      0.38026429      1.32934029
O       1.37310449      0.85707626      2.60844796
C       2.74750181     -0.13858279      0.98238357
H       5.52574819     -0.21334816      0.46067458
H       6.07531955     -1.65481598     -0.40277829
H       4.98804750     -1.86013438      0.97603109
H       2.10816567     -0.90388625     -2.26262057
H      -0.09236978      0.01382112     -1.66492963
H      -1.53807247     -1.60063395     -0.01157151
H      -3.68434375     -2.32555994     -0.97734788
H      -5.55139429     -0.71190770     -1.23789037
H      -5.27010489      1.64275088     -0.50240972
H      -2.36860940      2.75632476      1.11111374
H       0.54779126      1.38946242      2.65001202
H       3.52419607     -0.14685869      1.73951519
