10
C[As](=O)([O-])O.[Na+]
C      -1.18336614      0.00660540     -0.06912328
As      0.72714198     -0.45895800      0.04621804
O       0.90505775     -1.41906358      1.37341820
O       1.30803077     -1.34562055     -1.43583355
O       1.69880875      1.06144253      0.30949087
Na      0.00000000      0.00000000      0.00000000
H      -1.84066392     -0.86909406      0.00860587
H      -1.40208053      0.69304351      0.78188682
H      -1.36927086      0.48375344     -1.03634401
H       1.15634220      1.84789130      0.02168103
