39
Clc1ccc(COC(Cn2ccnc2)c2ccc(Cl)cc2Cl)c(Cl)c1
Cl      4.82077222     -2.73547023      4.27619739
C       3.80638107     -2.11465909      3.03334542
C       2.45085791     -1.92161329      3.28013161
C       1.62595719     -1.41582814      2.27212134
C       2.14624314     -1.09086412      1.00676071
C       1.25700330     -0.55595907     -0.09448022
O      -0.05107522     -0.24190859      0.39778676
C      -0.88403655      0.36889351     -0.60677555
C      -2.34540821      0.01397659     -0.28993892
N      -2.65004021     -1.36103633     -0.64438059
C      -3.23657206     -1.78674317     -1.80269264
C      -3.31435497     -3.15422468     -1.67514151
N      -2.79284424     -3.56134144     -0.47419288
C      -2.40412200     -2.45982018      0.12714618
C      -0.70499111      1.88197342     -0.58485346
C      -0.36039231      2.53645873      0.61395079
C      -0.20510904      3.92367368      0.65696046
C      -0.40167385      4.67722372     -0.49566081
Cl     -0.21292572      6.38585114     -0.44132668
C      -0.75692439      4.05822279     -1.68988808
C      -0.91197771      2.66958545     -1.73294260
Cl     -1.38401714      1.97182677     -3.24229312
C       3.51838641     -1.30621776      0.78027694
Cl      4.24579027     -0.96267894     -0.75093803
C       4.34539802     -1.81136802      1.78756141
H       2.02690504     -2.16514365      4.25127524
H       0.56738088     -1.28046750      2.48611816
H       1.16350795     -1.31825978     -0.87670470
H       1.70283985      0.35488252     -0.50940368
H      -0.60200719     -0.04094076     -1.58426682
H      -3.05012872      0.64571906     -0.84349616
H      -2.56336877      0.12352644      0.77969418
H      -3.53981101     -1.11509464     -2.59377093
H      -3.71786074     -3.86678015     -2.38293020
H      -1.93993443     -2.40391163      1.10354640
H      -0.20378197      1.96577021      1.52906266
H       0.06842525      4.40706755      1.59203434
H      -0.91635051      4.65598160     -2.58387128
H       5.40385959     -1.97030202      1.59965745
