16
OC1CSC(O)CS1
O       1.50302686      0.92027817     -1.10046728
C       1.45919031      0.50716535      0.25692198
C       1.28051854     -1.00998574      0.37424329
S      -0.20242016     -1.74550017     -0.41556670
C      -1.34739002     -0.34205257     -0.36928320
O      -1.13658026      0.47330369     -1.51578298
C      -1.28065655      0.48436031      0.91693274
S       0.23468485      1.47742241      1.18199640
H       0.57855093      1.15002692     -1.32500797
H       2.43417631      0.76327628      0.68419628
H       1.28811576     -1.31586163      1.42644966
H       2.13427881     -1.50157295     -0.10563197
H      -2.35665801     -0.75788864     -0.45833019
H      -1.05719652     -0.15970084     -2.25432748
H      -2.10105563      1.21079685      0.90894793
H      -1.43058520     -0.15406744      1.79470949
