16
C/C=C/C=C/C(=O)O
C      -3.24035028     -0.07156586     -0.34147996
C      -1.91732489     -0.12403803      0.35149894
C      -0.74049885      0.02279235     -0.27482328
C       0.52607343     -0.03216771      0.41894629
C       1.70331093      0.11434099     -0.20519770
C       2.95173363      0.04690551      0.56381328
O       3.07995083     -0.13380995      1.75891244
O       4.00444194      0.21799136     -0.25168059
H      -3.84804153      0.73646334      0.07710344
H      -3.13838074      0.10027779     -1.41765998
H      -3.77464647     -1.01532325     -0.19566624
H      -1.95011524     -0.29271490      1.42595433
H      -0.71994968      0.19107303     -1.35002904
H       0.50152025     -0.20078648      1.49524915
H       1.78630020      0.28380852     -1.27122505
H       4.77597647      0.15675329      0.34920535
