53
OCCOCCN1CCN(C(c2ccccc2)c2ccc(Cl)cc2)CC1
O       7.46765253      0.57639199      1.83169563
C       7.70284659     -0.23828866      0.68336110
C       6.43562061     -0.32491304     -0.16358190
O       5.52008850     -1.23605260      0.45591321
C       4.23444579     -1.24138508     -0.17199681
C       3.31677486     -0.16686996      0.43879421
N       2.00061170     -0.05756533     -0.21949221
C       1.28500479      1.13168556      0.28751055
C      -0.12793535      1.27462205     -0.32182339
N      -0.98277022      0.08801263     -0.06286897
C      -2.31596987      0.23270077     -0.72219626
C      -3.08353385      1.49043839     -0.29036900
C      -3.70540482      2.29736029     -1.25884442
C      -4.42439183      3.43467853     -0.88508328
C      -4.53665137      3.77955611      0.46002621
C      -3.93224348      2.98795630      1.43374658
C      -3.21349878      1.85038783      1.06244880
C      -3.22205892     -0.99616211     -0.54323574
C      -3.92310300     -1.51478320     -1.64635639
C      -4.76659878     -2.61919734     -1.50000053
C      -4.92145436     -3.21216865     -0.24924007
Cl     -5.95949394     -4.57304368     -0.07161312
C      -4.24219505     -2.71085239      0.85766723
C      -3.39937535     -1.60666016      0.71180086
C      -0.25668721     -1.09992735     -0.57851478
C       1.16082322     -1.24643044      0.02477395
H       8.20793344      0.42285218      2.44265928
H       8.01286423     -1.23144583      1.02381543
H       8.51242008      0.22368171      0.11098396
H       6.68363927     -0.71311609     -1.15724229
H       5.97950429      0.66558042     -0.25927037
H       3.81357850     -2.23566325      0.00675523
H       4.33525379     -1.11647492     -1.25695708
H       3.83188548      0.79815664      0.35832571
H       3.21036963     -0.35153170      1.51633964
H       1.20075616      1.09544823      1.38237558
H       1.85468517      2.03406364      0.03361733
H      -0.03500928      1.45334767     -1.40192871
H      -0.57071961      2.17394814      0.11884113
H      -2.11714905      0.33132870     -1.80018339
H      -3.63616656      2.04291878     -2.31386623
H      -4.90032571      4.05005527     -1.64408822
H      -5.09784700      4.66378422      0.75011287
H      -4.02028600      3.25416585      2.48368697
H      -2.74239064      1.24558166      1.83397149
H      -3.81962278     -1.05791856     -2.62811360
H      -5.30106259     -3.00768860     -2.36257760
H      -4.36318147     -3.17017464      1.83468219
H      -2.86973013     -1.22425757      1.58188628
H      -0.79862523     -2.01951434     -0.33368859
H      -0.17388709     -1.05360402     -1.67322230
H       1.61983618     -2.12854000     -0.43488668
H       1.07277447     -1.44447406      1.10158114
