17
CCC(C)C
C       1.97847951     -0.49049206     -0.38676569
C       0.92017068      0.12938706      0.51463854
C      -0.42529764      0.37054908     -0.19151429
C      -1.37500008      1.12346619      0.74322781
C      -1.08108880     -0.93080050     -0.65561388
H       2.12114483      0.10578363     -1.29342404
H       1.71076939     -1.50990311     -0.67918559
H       2.93696731     -0.53994500      0.14007631
H       1.30692875      1.08681694      0.88554407
H       0.77581671     -0.51287266      1.39208301
H      -0.25211560      1.00069532     -1.07313502
H      -2.32530203      1.33783971      0.24277833
H      -1.59065195      0.54032779      1.64507315
H      -0.93968041      2.07939620      1.05319565
H      -0.47676223     -1.43160334     -1.41796852
H      -1.22114642     -1.62488035      0.17996921
H      -2.06323203     -0.73376492     -1.09897905
