28
NS(=O)(=O)c1cc2c(cc1Cl)NC(C(Cl)Cl)NS2(=O)=O
N       4.63655547     -0.05225963      0.79507944
S       3.92654938      0.27378240     -0.68959068
O       4.42166374      1.55274555     -1.13521052
O       4.12421088     -0.93079560     -1.46335034
C       2.21277513      0.41508629     -0.29171326
C       1.32058176     -0.50451596     -0.85648082
C      -0.04568327     -0.39913132     -0.57336064
C      -0.55673569      0.58488574      0.27224544
C       0.35654189      1.49339317      0.82523276
C       1.73338203      1.41853693      0.55167707
Cl      2.73473089      2.59825180      1.31874938
N      -1.91195544      0.74910193      0.55237540
C      -2.91816292     -0.03673568     -0.16123472
C      -4.32403300      0.10366025      0.50217103
Cl     -5.58839116     -0.78157308     -0.39107298
Cl     -4.29442242     -0.46418846      2.20615547
N      -2.47244992     -1.41615642     -0.21761412
S      -1.13875330     -1.62975143     -1.19384352
O      -0.58881723     -2.92158285     -0.85413466
O      -1.49228737     -1.25662073     -2.54300701
H       5.25723045      0.71535321      1.05840245
H       5.10017358     -0.96163434      0.76451838
H       1.67595355     -1.30352886     -1.50699170
H      -0.01107180      2.28878260      1.47265688
H      -2.09887474      0.87353653      1.54801521
H      -3.01590517      0.36691462     -1.17775376
H      -4.61949006      1.15708068      0.53013256
H      -2.42331526     -1.93263734      0.65794726
