9
CSC
C      -1.35440863      0.12656708     -0.17034731
S       0.11436915     -0.13040347     -1.19359217
C       1.35942735     -0.13228924      0.11797089
H      -2.23938357      0.15675877     -0.81148173
H      -1.46992181     -0.69368888      0.54290006
H      -1.28254665      1.07544124      0.36757295
H       1.16844873     -0.94534686      0.82320073
H       1.35582138      0.82378366      0.64787342
H       2.34819405     -0.28082229     -0.32409684
