23
CCOC(=O)CC(=O)OCC
C       4.02148837      0.16731281     -0.88899764
C       3.31868025     -0.17064672      0.41124920
O       1.95443671     -0.49034179      0.11192185
C       1.19571339     -0.78106647      1.20491551
O       1.60885411     -0.83761057      2.35606014
C      -0.21543169     -1.06963415      0.80739988
C      -0.96116392      0.15500884      0.38430509
O      -0.55391962      1.30489380      0.46005686
O      -2.19049057     -0.20496475     -0.08880571
C      -3.00350810      0.89630881     -0.51444057
C      -4.32465443      0.34426198     -1.01311913
H       5.07080119      0.41889315     -0.71148791
H       3.97285319     -0.67720786     -1.58435226
H       3.53307590      1.01428439     -1.38217301
H       3.35786724      0.69057142      1.08767886
H       3.80449528     -1.03283776      0.88152337
H      -0.20370627     -1.80388268     -0.00512859
H      -0.72993387     -1.51483590      1.66578461
H      -3.17986788      1.57283361      0.32926075
H      -2.49928687      1.43684913     -1.32328174
H      -4.83116054     -0.21754929     -0.22133675
H      -4.16305565     -0.35111284     -1.84344523
H      -4.98208622      1.15047284     -1.35028155
