6
ClC(Cl)=C(Cl)Cl
Cl      1.19686555     -1.78484045      0.33678088
C       0.64946108     -0.15622331      0.07432991
Cl      1.91201154      1.03702176      0.01902559
C      -0.64946107      0.15622338     -0.07432997
Cl     -1.91201137     -1.03702191     -0.01902564
Cl     -1.19686573      1.78484052     -0.33678077
