36
C/C(=N\NC(=O)Nc1cc(F)cc(F)c1)c1ncccc1C(=O)O
C       2.63753623     -1.30235152     -2.43297864
C       2.01665993     -0.80620488     -1.14791157
N       0.74065269     -0.61124987     -0.96067464
N      -0.10780884     -0.85084672     -2.00592271
C      -1.47391878     -0.64220912     -1.89528402
O      -2.21615450     -0.84403109     -2.84905566
N      -1.82520600     -0.20973494     -0.63926891
C      -3.09046805      0.11669438     -0.13571501
C      -3.16208162      0.52495429      1.20056563
C      -4.39116278      0.86598631      1.76040495
F      -4.44272833      1.25649818      3.04077213
C      -5.55885808      0.80982884      1.01674757
C      -5.48138247      0.40424488     -0.30718920
F      -6.60184668      0.34533974     -1.03932586
C      -4.26316522      0.05797202     -0.89054876
C       2.94883197     -0.56359363     -0.01307100
N       3.81149125     -1.59006994      0.23123903
C       4.59220236     -1.48186675      1.32864378
C       4.55615389     -0.40073068      2.19576236
C       3.67832538      0.64448734      1.91666636
C       2.85816838      0.56790881      0.78687300
C       2.01453758      1.70558339      0.40585309
O       1.91654701      2.18140904     -0.70759690
O       1.35730506      2.20837396      1.46521382
H       2.35675099     -0.63896438     -3.25628383
H       3.72939646     -1.31734850     -2.37643321
H       2.28292296     -2.31557357     -2.64201633
H       0.22695342     -1.16042247     -2.91036977
H      -1.00835219     -0.14231195     -0.04154273
H      -2.27380671      0.58191572      1.82202098
H      -6.51151791      1.07616080      1.45791162
H      -4.26683224     -0.25063844     -1.93042418
H       5.26689418     -2.31656214      1.50302646
H       5.20573587     -0.36758236      3.06465585
H       3.64647929      1.51600633      2.56609534
H       0.83174550      2.94892890      1.09212194
