34
CCCC(C)C1(CC)C(=O)NC(=O)NC1=O
C       3.95730545     -0.35306325      1.18041465
C       2.86009906      0.56949760      0.66946846
C       1.61111642     -0.22144145      0.26159155
C       0.40572094      0.67752221     -0.12776777
C       0.75284148      1.50295715     -1.38147807
C      -0.94751281     -0.13788691     -0.28822595
C      -0.85764754     -1.18847783     -1.42742928
C      -2.12467430     -2.01575905     -1.65368063
C      -2.06480854      0.87060736     -0.56876057
O      -2.52181772      1.10469667     -1.68458922
N      -2.51729319      1.57121336      0.51553783
C      -2.57011464      1.04359950      1.76713898
O      -3.38866209      1.43539121      2.59225594
N      -1.74338918     -0.00260654      2.03066783
C      -1.24246076     -0.81643209      1.05206201
O      -1.01609999     -1.99917151      1.29405545
H       3.62433776     -0.90848232      2.06300996
H       4.84152824      0.22846971      1.45957882
H       4.25296933     -1.07379391      0.41135054
H       3.25311801      1.13327418     -0.18260566
H       2.60527450      1.29139906      1.45368585
H       1.87128679     -0.88401107     -0.57230581
H       1.33725997     -0.86479681      1.10420514
H       0.26912919      1.39975695      0.68967689
H       1.05274674      0.86238829     -2.21651861
H      -0.08487613      2.12424386     -1.70922780
H       1.57905552      2.19203751     -1.18012792
H      -0.61785473     -0.69491006     -2.37640541
H      -0.04274354     -1.89333135     -1.22583003
H      -1.95819377     -2.72535283     -2.47128414
H      -2.97831402     -1.39221216     -1.93170234
H      -2.39984593     -2.59577397     -0.76896248
H      -3.25984589      2.22839040      0.31428857
H      -1.93763464     -0.46794189      2.90791323
