21
CC1(C)C(=O)NC(=O)N1CO
C      -1.24822752     -0.78938468      1.00923426
C      -0.66613632      0.06783835     -0.11078787
C      -1.30428835     -0.23360434     -1.46369872
C      -0.85953866      1.55598169      0.22925903
O      -1.92677322      2.12478096      0.40659857
N       0.35801907      2.15483051      0.31123408
C       1.35551069      1.25635501      0.13660593
O       2.54512844      1.49125364      0.26296050
N       0.79321374      0.03491859     -0.16889705
C       1.56094458     -1.16520224     -0.32730811
O       1.69657702     -1.75542820      0.94518057
H      -2.32939644     -0.63673188      1.10196138
H      -0.79952482     -0.53949231      1.97770412
H      -1.07482354     -1.85515165      0.82618511
H      -1.12396571     -1.26978682     -1.76844039
H      -2.38811402     -0.07506263     -1.43326970
H      -0.90102173      0.41701053     -2.24856227
H       0.50440636      3.11478431      0.57120489
H       1.05478361     -1.85614509     -1.00566891
H       2.55587944     -0.93543152     -0.72096126
H       2.19734738     -1.10633225      1.46946584
