40
Cc1ccc(C)c(OCCCC(C)(C)C(=O)O)c1
C      -4.91760207     -1.92164888      1.15327599
C      -4.31133150     -0.73348667      0.46631205
C      -5.12818984      0.23836398     -0.11666206
C      -4.56277146      1.32600734     -0.78185222
C      -3.17050613      1.45489282     -0.88365860
C      -2.58096989      2.63448037     -1.60641534
C      -2.34141379      0.47283737     -0.31350852
O      -0.99428568      0.67396637     -0.46867978
C      -0.11099694     -0.29180956      0.09864063
C       1.31999200      0.15750319     -0.19735126
C       2.34561029     -0.83213805      0.36500035
C       3.82568529     -0.40416819      0.19481449
C       4.17969122     -0.22846602     -1.29137878
C       4.73698296     -1.49275495      0.78835492
C       4.11411819      0.89585519      0.93885622
O       4.70317454      1.87209924      0.50444532
O       3.67251534      0.89440494      2.21240447
C      -2.91775272     -0.61542351      0.35200774
H      -5.04382389     -2.74185581      0.43994292
H      -5.89440597     -1.67123228      1.58035793
H      -4.28156918     -2.26207685      1.97715816
H      -6.21106525      0.15656508     -0.05670816
H      -5.21738418      2.07358580     -1.22395902
H      -1.93471916      3.20771608     -0.93375377
H      -1.99971252      2.29730810     -2.47074117
H      -3.35970435      3.31156604     -1.97309480
H      -0.28545969     -1.27435124     -0.35588978
H      -0.25849145     -0.34576444      1.18390426
H       1.43715644      0.26271512     -1.28208943
H       1.47230767      1.15861908      0.22294841
H       2.12957245     -0.99327540      1.42951650
H       2.19500773     -1.80439261     -0.12342254
H       5.25270078     -0.04435107     -1.42289041
H       3.92298443     -1.12351329     -1.86865160
H       3.65795818      0.62560492     -1.73644609
H       5.79226631     -1.20123695      0.73078721
H       4.61970806     -2.44250391      0.25468940
H       4.50969564     -1.67326476      1.84531251
H       3.93718233      1.77538417      2.55205929
H      -2.30215419     -1.39176078      0.79452674
