45
CO[C@@]1(NC(=O)Cc2cccs2)C(=O)N2C(C(=O)O)=C(COC(N)=O)CS[C@@H]21
C      -2.13588819     -1.31757248      4.08119170
O      -1.07612226     -1.81780182      3.27753947
C      -0.91560436     -1.24231775      1.94949437
N      -1.94595580     -1.66308844      0.94782155
C      -3.18385805     -1.06896047      0.84865112
O      -3.65717030     -0.33378138      1.70833068
C      -3.92813740     -1.40154903     -0.43341865
C      -3.60520161     -0.36525731     -1.46650583
C      -4.25722814      0.82994706     -1.71012368
C      -3.65256018      1.57134671     -2.76592775
C      -2.55852930      0.92095731     -3.28977946
S      -2.26951541     -0.58394650     -2.52130103
C      -0.50183598      0.32937596      1.90856630
O      -0.94677347      1.40377420      2.24023492
N       0.62452155      0.01141161      1.23092381
C       1.68464218      0.66098993      0.68431804
C       1.82975399      2.11656623      0.95452560
O       2.00044940      2.99539238      0.13035543
O       1.83474479      2.35986182      2.27691102
C       2.56852857      0.00493808     -0.10390859
C       3.82248487      0.64077270     -0.66668348
O       3.61286515      0.88195438     -2.06142263
C       4.72464351      0.80251797     -2.82392432
N       4.43355937      1.14544703     -4.09816087
O       5.83964299      0.47636897     -2.45046492
C       2.42924504     -1.45067862     -0.50806144
S       0.77935117     -2.17183895     -0.23860106
C       0.57563848     -1.41699752      1.40379208
H      -3.04414427     -1.89631046      3.88223310
H      -2.31358899     -0.25431159      3.91411314
H      -1.86712266     -1.46302259      5.13192938
H      -1.58590209     -2.09314649      0.09781160
H      -5.00419466     -1.42846816     -0.21265080
H      -3.65648706     -2.40961429     -0.77450841
H      -5.12131678      1.16473213     -1.14416323
H      -3.99916934      2.53708741     -3.11375822
H      -1.90821935      1.25280531     -4.09077847
H       1.83391193      3.33546747      2.34450530
H       4.66536184     -0.03766522     -0.48154433
H       4.07288139      1.59111101     -0.18799949
H       3.52757251      1.54817052     -4.30352082
H       5.19303364      1.23742746     -4.75660457
H       3.16635691     -2.05307592      0.03428767
H       2.63589679     -1.56180744     -1.57763054
H       1.27943958     -1.78721123      2.15908588
