34
Cc1ccc(C(=O)c2ccc(CC(=O)O)n2C)cc1
C      -5.74257550      1.06801129     -0.31866652
C      -4.37675549      0.47770652     -0.12375695
C      -4.17068782     -0.89800863     -0.28633909
C      -2.89448908     -1.44463358     -0.13342494
C      -1.80597298     -0.61567275      0.16031701
C      -0.46260173     -1.23412301      0.33347109
O      -0.41405937     -2.31766971      0.91389110
C       0.71935682     -0.55550522     -0.18689190
C       0.81425485      0.35118306     -1.23239570
C       2.16646741      0.72069111     -1.38096582
C       2.89873532      0.03007582     -0.43559413
C       4.38066252      0.07109237     -0.20047527
C       4.74106083      0.91159756      1.00548411
O       4.02809277      1.24643599      1.93720456
O       6.04869450      1.25365445      1.00686226
N       2.01252566     -0.75338820      0.27900502
C       2.34643962     -1.63954899      1.37903502
C      -2.00693149      0.75893932      0.33043777
C      -3.28512351      1.30239950      0.17701727
H      -6.52155736      0.35287354     -0.03411285
H      -5.87604658      1.95818738      0.30501282
H      -5.88324598      1.34616473     -1.36763614
H      -5.00413753     -1.55479350     -0.52671405
H      -2.74985974     -2.51712012     -0.24636093
H      -0.00891981      0.70521967     -1.84072623
H       2.56850038      1.41355340     -2.10984322
H       4.78316854     -0.93782032     -0.06472736
H       4.86561393      0.51173944     -1.08001748
H       6.15060272      1.77552163      1.83074194
H       3.38760463     -1.50995161      1.67579199
H       2.19151407     -2.66901671      1.04671083
H       1.70571409     -1.39651610      2.23064711
H      -1.18068574      1.41462860      0.59473362
H      -3.42535894      2.37409305      0.30319264
