8
FC(F)(F)C(Cl)Br
F      -1.02127084      0.33546949     -1.39864135
C      -0.78328365      0.12730173     -0.08475386
F      -1.20617009      1.22769117      0.58503400
F      -1.58164122     -0.89338660      0.31495789
C       0.67654908     -0.17253132      0.21389947
Cl      1.26202906     -1.63995930     -0.61219884
Br      1.82295286      1.32425531     -0.30601451
H       0.83083481     -0.30884048      1.28771721
