28
O=c1cccc2n1C[C@@H]1CNC[C@H]2C1
O       2.21353371      2.48730467      0.95700518
C       2.08283302      1.30471544      0.64948103
C       3.23458582      0.38361234      0.82340295
C       3.13151565     -0.89704344      0.45429082
C       1.90269921     -1.40090352     -0.09766636
C       0.83110651     -0.60166683     -0.24327957
N       0.91014284      0.74460704      0.12858181
C      -0.18188027      1.68414754     -0.14062594
C      -1.50730834      1.07824339     -0.62048772
C      -2.37995364      0.57070910      0.54366635
N      -1.80649435     -0.56167151      1.27665121
C      -1.39311072     -1.63271084      0.35702816
C      -0.47908042     -1.14315130     -0.79094740
C      -1.21000739     -0.06348077     -1.58661340
H       4.13776238      0.80577941      1.24322613
H       3.96662413     -1.57979704      0.56956655
H       1.86946605     -2.45103744     -0.37242151
H       0.19205940      2.36333609     -0.91920997
H      -0.34270899      2.30226312      0.75170155
H      -2.07418785      1.85991621     -1.14148199
H      -3.36300619      0.27433932      0.15631444
H      -2.56641470      1.38688470      1.25131700
H      -0.97334706     -0.23532228      1.77308239
H      -2.29051926     -2.10344886     -0.06403990
H      -0.88434177     -2.41126100      0.93808430
H      -0.27900350     -1.98972118     -1.46047110
H      -2.14129733     -0.46150268     -2.00779052
H      -0.59966693      0.28686032     -2.42836447
