53
CCCCc1nc(Cl)c(CO)n1Cc1ccc(-c2ccccc2-c2nn[nH]n2)cc1
C      -6.80451078      0.71448861     -0.47471755
C      -5.31293047      0.45544878     -0.62188866
C      -5.03967671     -0.69225425     -1.59631237
C      -3.54877879     -0.94848943     -1.83205116
C      -2.87206643     -1.54492255     -0.63817095
N      -2.95753533     -2.81865638     -0.31146116
C      -2.20762965     -2.97640095      0.82153699
Cl     -2.03401350     -4.49257344      1.57659693
C      -1.63644833     -1.78118453      1.20513136
C      -0.71754882     -1.48381324      2.32660794
O      -1.30336589     -0.43865940      3.08882830
N      -2.06801126     -0.86645600      0.25865603
C      -1.75850967      0.56098270      0.23824674
C      -0.29217547      0.83935968      0.00823081
C       0.41133228      0.24178336     -1.04672954
C       1.78306663      0.45865511     -1.19519714
C       2.47925101      1.28716855     -0.30354227
C       3.93503982      1.45231267     -0.41706032
C       4.42822498      2.61300159     -1.04687927
C       5.79699490      2.81337571     -1.22882870
C       6.70118431      1.85434273     -0.78881375
C       6.23620779      0.69907175     -0.15913653
C       4.85876162      0.48442254      0.04507856
C       4.44303289     -0.73547854      0.73503765
N       3.36893085     -0.80241634      1.59561127
N       3.30401980     -2.04898130      2.04020895
N       4.32903007     -2.66796697      1.44633234
N       5.09189045     -1.91256369      0.64348991
C       1.76202079      1.93286649      0.71220862
C       0.39164563      1.71265412      0.86615665
H      -7.32051278     -0.17197526     -0.09228150
H      -6.97872730      1.53757483      0.22536971
H      -7.25269855      0.98576087     -1.43588738
H      -4.89775024      0.22486432      0.36517251
H      -4.82486874      1.36994936     -0.97772640
H      -5.52480000     -1.60680392     -1.23211736
H      -5.50229928     -0.45322303     -2.56222175
H      -3.05028505     -0.04043664     -2.18312842
H      -3.45473199     -1.66946665     -2.65486609
H       0.26618579     -1.16971111      1.96863381
H      -0.58305544     -2.34927020      2.98204992
H      -0.70064677     -0.29294770      3.83813824
H      -2.11043546      0.97305389      1.19000305
H      -2.33816501      1.05525803     -0.54402805
H      -0.09056781     -0.42885162     -1.74132745
H       2.31510313     -0.04581250     -1.99963266
H       3.73279277      3.36746036     -1.41218448
H       6.15362044      3.71470601     -1.72100218
H       7.76841303      2.00223593     -0.93349695
H       6.95997331     -0.03978410      0.18221780
H       4.51827171     -3.65417905      1.60170161
H       2.27823752      2.58332613      1.41531710
H      -0.13048601      2.19915470      1.68786940
