59
N#CC(OC1OC(COC2OC(CO)C(O)C(O)C2O)C(O)C(O)C1O)c1ccccc1
N       1.90977881      3.47936883      1.30609287
C       2.27920588      2.44598209      0.92350935
C       2.74662327      1.12691067      0.43638648
O       2.68089344      1.09098616     -1.00233730
C       2.37259811     -0.21059454     -1.49220434
O       1.00931294     -0.54976166     -1.21409786
C       0.05431318      0.30679570     -1.87212998
C      -1.34553417     -0.13059097     -1.42525709
O      -1.50691699      0.25721783     -0.05547781
C      -2.75623159     -0.17033277      0.50144200
O      -3.12582359      0.76525137      1.51591694
C      -4.44649670      0.53848332      2.03540175
C      -5.42803121      1.47256015      1.31497010
O      -6.77501125      1.14814815      1.63282296
C      -4.86911122     -0.94906463      2.02424656
O      -5.49618496     -1.32176969      0.78099529
C      -3.64021389     -1.84215943      2.21091920
O      -4.05463130     -3.21872250      2.17849339
C      -2.58535454     -1.58074301      1.12116929
O      -1.27248464     -1.70871936      1.71758311
C       0.21673060      0.21964775     -3.39176596
O      -0.09826284     -1.09883036     -3.87332039
C       1.65970624      0.56021839     -3.79210074
O       1.83916848      0.30663410     -5.19613598
C       2.66780703     -0.28415535     -3.00393820
O       2.58282031     -1.64820363     -3.46361090
C       4.17882695      0.85146476      0.86085807
C       4.46159613     -0.14834519      1.80516001
C       5.77846465     -0.40505909      2.19211056
C       6.82702757      0.33255091      1.64379771
C       6.56127400      1.32836319      0.70768741
C       5.24683413      1.58735931      0.31791666
H       2.07717393      0.36523305      0.86046694
H       2.99475352     -0.96086345     -0.98876351
H       0.22550597      1.33606202     -1.53189516
H      -1.45932859     -1.21619352     -1.50796062
H      -2.11280003      0.37013403     -2.02462292
H      -3.52826317     -0.15914190     -0.27875304
H      -4.39957182      0.84632883      3.08639725
H      -5.22805846      2.51154691      1.59935023
H      -5.30781858      1.41394596      0.22812418
H      -7.32087269      1.89466286      1.32173585
H      -5.60900004     -1.14915728      2.80801245
H      -6.34418641     -0.83158439      0.76947059
H      -3.20702242     -1.67129824      3.20248388
H      -4.65769392     -3.29600296      1.41349130
H      -2.61921744     -2.33801981      0.33045442
H      -0.70652080     -1.07959800      1.22693098
H      -0.47746440      0.90042042     -3.89564477
H       0.54691234     -1.71316276     -3.45332969
H       1.85192328      1.62444510     -3.61599214
H       1.14449462     -0.33877565     -5.44396479
H       3.68675621      0.06208252     -3.21272777
H       2.83372510     -1.60849037     -4.40879403
H       3.66405064     -0.73885309      2.25060763
H       5.98947255     -1.18206277      2.92346775
H       7.85338947      0.13177565      1.94834255
H       7.37591895      1.90619192      0.27963044
H       5.06104936      2.36948445     -0.41750201
