24
CCNC(=O)NC(=O)/C(C#N)=N/OC
C       4.07864961      0.14089113     -1.00971369
C       3.60887597      0.53326399      0.37956360
N       2.22310059      0.17958423      0.59507410
C       1.19230471      0.96673028      0.17821434
O       1.33477985      2.06520869     -0.34960509
N      -0.06609887      0.46662831      0.37346713
C      -0.43594385     -0.82253743      0.70688883
O       0.31421790     -1.72273370      1.05514727
C      -1.92533065     -1.06201857      0.62933999
C      -2.51359975     -2.31998536      1.02946171
N      -2.97880240     -3.33517379      1.35504417
N      -2.68895110     -0.09914386      0.18757660
O      -4.04761799     -0.45427029      0.16757336
C      -4.80407474      0.64509244     -0.33007524
H       3.50287795      0.65905567     -1.78355202
H       3.96077810     -0.93568176     -1.17207599
H       5.13485120      0.39480685     -1.14115231
H       3.73261137      1.61143146      0.52661362
H       4.19906635      0.01162407      1.13938391
H       2.00627895     -0.77270160      0.87863136
H      -0.79919718      1.08555818      0.04511525
H      -4.49046983      0.88819103     -1.34982082
H      -5.85946696      0.36101808     -0.34245998
H      -4.67883922      1.51516194      0.32155601
