26
CC(C)(C)c1cc(O)ccc1O
C      -1.83860900      1.00095622      1.02028546
C      -1.14596767     -0.27969047      0.50358369
C      -1.06648092     -1.24609557      1.71370369
C      -2.04383796     -0.97474843     -0.54403807
C       0.23150726      0.06163085     -0.10821294
C       1.42295547     -0.48026022      0.41987032
C       2.66780125     -0.17139203     -0.13353385
O       3.82050432     -0.69419047      0.37552243
C       2.77543018      0.67852038     -1.22106798
C       1.62246331      1.23029518     -1.76668462
C       0.37180683      0.92414951     -1.21595600
O      -0.73663735      1.48925113     -1.78424589
H      -2.78130822      0.76224788      1.52702864
H      -2.08544945      1.70372505      0.21954198
H      -1.20059220      1.53077963      1.73756462
H      -0.62214486     -2.20862115      1.43427865
H      -0.47782914     -0.81934592      2.53427820
H      -2.06444289     -1.46050608      2.11542804
H      -1.55348376     -1.86645547     -0.95230150
H      -2.29614958     -0.32463146     -1.38647009
H      -2.99473043     -1.29234573     -0.09975527
H       1.39648467     -1.15142233      1.27100076
H       3.59675511     -1.26638587      1.12754159
H       3.75016732      0.90901054     -1.64004614
H       1.71487456      1.89581616     -2.61934106
H      -0.46308686      2.04970865     -2.52797466
