60
CCN(CC)C(=O)Nc1ccc(OCC(O)CNC(C)(C)C)c(C(C)=O)c1
C       7.28697442     -2.15322477     -1.37157529
C       6.89776377     -0.79793107     -1.94280127
N       6.08436690     -0.00554288     -1.01578167
C       6.77193296      1.03321561     -0.24179009
C       7.31491373      0.51804381      1.08137390
C       4.72163390     -0.31036797     -0.94214182
O       4.21019669     -1.13658482     -1.69532125
N       4.02790447      0.37465621      0.03183358
C       2.63304207      0.37765989      0.24642556
C       2.17031874      0.93828336      1.44337949
C       0.80282166      0.98711938      1.72676869
C      -0.11909390      0.49135501      0.80349738
O      -1.45302174      0.46882080      1.10269865
C      -2.00056545      1.76871841      1.37249494
C      -3.37559883      1.90335908      0.70024893
O      -3.20939511      2.03960549     -0.72181347
C      -4.30269531      0.70478920      0.99339335
N      -5.63252538      0.95969429      0.41914824
C      -6.54725117     -0.19228920      0.36571168
C      -6.08863825     -1.23252631     -0.67075325
C      -7.91134806      0.36810643     -0.07974257
C      -6.72049041     -0.85986021      1.73945641
C       0.33054775     -0.08191552     -0.39209344
C      -0.63974354     -0.61501654     -1.38829946
C      -0.24427971     -1.82943689     -2.18812673
O      -1.72235234     -0.05757799     -1.56549996
C       1.70548817     -0.12107136     -0.67246392
H       7.86807868     -2.71852867     -2.10671978
H       7.89672930     -2.04602529     -0.47021242
H       6.40464287     -2.74459095     -1.10805274
H       7.79556281     -0.23288622     -2.21668286
H       6.32967684     -0.95055260     -2.86846888
H       7.58564648      1.44874763     -0.84691455
H       6.08131697      1.86274677     -0.05701511
H       8.09936208     -0.22818225      0.92303377
H       6.53012401      0.05350183      1.68714984
H       7.74964093      1.34123571      1.65688520
H       4.58394665      0.75940413      0.77673882
H       2.86629749      1.33324596      2.17945284
H       0.46720787      1.39598721      2.67615064
H      -1.34763880      2.57012581      1.00076448
H      -2.10486458      1.86696805      2.45942800
H      -3.84136239      2.83250970      1.04929678
H      -2.73188732      1.23353262     -1.03202900
H      -3.86896595     -0.19652698      0.55063510
H      -4.38247214      0.56628345      2.07673672
H      -5.48847296      1.33297309     -0.52519346
H      -5.15302060     -1.72145616     -0.37931850
H      -6.84023134     -2.02250305     -0.78877207
H      -5.93613100     -0.77501290     -1.65555451
H      -8.28830383      1.11501742      0.62959753
H      -8.66243785     -0.42786848     -0.14860131
H      -7.84788174      0.84529848     -1.06492646
H      -7.50046403     -1.62914347      1.70445889
H      -7.01290412     -0.13006055      2.50348753
H      -5.80025385     -1.34958601      2.07553916
H       0.41730796     -2.48178876     -1.61100348
H       0.24642901     -1.51747865     -3.11343022
H      -1.14336661     -2.40543090     -2.42922061
H       2.03778314     -0.52003741     -1.62514182
