22
NS(=O)(=O)Cc1noc2ccccc12
N       3.96178742     -0.92090121      0.03871511
S       2.51399854     -0.20196971     -0.43749489
O       1.92139706     -1.16176775     -1.34180899
O       2.89335002      1.12464918     -0.86251198
C       1.60020911     -0.15288715      1.10741576
C       0.31026270      0.56261664      0.96446637
N       0.12516127      1.72696172      1.60584593
O      -1.16419662      2.12757474      1.30020367
C      -1.75288044      1.19844913      0.50322875
C      -3.05130538      1.25069540      0.00343128
C      -3.45065793      0.17295653     -0.79329601
C      -2.58124793     -0.88860320     -1.06052381
C      -1.27848406     -0.90862891     -0.53921552
C      -0.85958952      0.16947629      0.25996689
H       4.10310147     -1.78906116     -0.48252883
H       4.72836674     -0.25431322     -0.08337036
H       2.24580375      0.34125484      1.84136396
H       1.43376520     -1.18827307      1.42099521
H      -3.71025181      2.08199329      0.22243230
H      -4.45460189      0.16247611     -1.21346245
H      -2.91705705     -1.71251019     -1.68781154
H      -0.61693065     -1.74018831     -0.76604087
