18
Nc1ccc(O)c(C(=O)O)c1
N      -0.84618817     -1.15957670     -2.58582669
C      -0.36337739     -0.36702916     -1.53886976
C      -0.23492830      1.01445726     -1.70674553
C       0.13109550      1.83375452     -0.63653528
C       0.32921212      1.28000297      0.62421166
O       0.68518978      2.15283383      1.61773433
C       0.14852989     -0.09388570      0.82639810
C       0.33503715     -0.66102184      2.17898256
O       0.63718662     -0.00563244      3.16277656
O       0.14803938     -1.98936894      2.24525509
C      -0.21852192     -0.90688364     -0.25710172
H      -0.63784579     -0.79644544     -3.51111585
H      -0.62240103     -2.14640035     -2.50044423
H      -0.41852399      1.46843594     -2.67729869
H       0.24713784      2.90414949     -0.78401656
H       0.77330486      1.65575577      2.45981709
H       0.30044257     -2.21440644      3.18705521
H      -0.39338912     -1.96873912     -0.10427630
