45
NC(=O)c1nc(-c2ccccc2)n(-c2ccc(Cl)c(COCC(F)(F)C(F)(F)F)c2)n1
N      -5.78595038      3.45073039     -0.89493868
C      -5.72963020      2.13904448     -0.49495688
O      -6.75865207      1.51449184     -0.25433455
C      -4.36290948      1.58936273     -0.39078713
N      -4.08867637      0.29816446     -0.02249599
C      -2.77404713      0.20230751     -0.09581372
C      -2.04957707     -1.05973965      0.04961032
C      -1.12477279     -1.49107736     -0.91254035
C      -0.43836073     -2.69546585     -0.74286168
C      -0.68793736     -3.49103194      0.37382610
C      -1.63049523     -3.08963567      1.31825343
C      -2.31272266     -1.88242995      1.15365300
N      -2.24902795      1.46563501     -0.36453434
C      -0.91044958      1.96130440     -0.33198889
C      -0.62646560      3.19618763     -0.93273381
C       0.67768216      3.69791972     -0.93593624
C       1.71382093      2.98277105     -0.33049213
Cl      3.29840544      3.66455643     -0.40278257
C       1.45039712      1.76468239      0.30890995
C       2.51579181      0.92863304      0.96936442
O       2.77817425     -0.18662454      0.11922369
C       3.76010643     -1.07174260      0.67701783
C       4.03399089     -2.24424884     -0.26481780
F       4.46571034     -1.77611820     -1.46918676
F       2.87665401     -2.92267904     -0.50595491
C       5.07418518     -3.17194846      0.35041121
F       4.65587719     -3.66406798      1.54398963
F       5.35607855     -4.23125836     -0.44240759
F       6.24220887     -2.52419985      0.58770994
C       0.12721809      1.26963776      0.30605444
N      -3.26753582      2.31984302     -0.66649867
H      -6.68679067      3.88569696     -1.02093338
H      -4.92955282      3.94065574     -1.12115379
H      -0.92416762     -0.89631888     -1.80122168
H       0.29100086     -3.01425423     -1.48441072
H      -0.15651620     -4.43130598      0.49884411
H      -1.84239035     -3.71967792      2.17838078
H      -3.05842939     -1.58578887      1.88951396
H      -1.40461109      3.77591104     -1.42667097
H       0.87976316      4.64860580     -1.42473781
H       3.43912158      1.48550856      1.15237030
H       2.15009367      0.57662645      1.94221715
H       3.38194903     -1.44316606      1.63614640
H       4.68260045     -0.50387333      0.84274811
H      -0.05116145      0.33837714      0.83694630
