24
CN(C)C(=O)Nc1ccccc1
C      -2.79565525      1.07770430      0.66233017
N      -2.37498430     -0.31638832      0.60295482
C      -3.44885300     -1.27878172      0.41910111
C      -1.09821102     -0.71750693      0.19059535
O      -0.91172298     -1.80027656     -0.35839393
N      -0.10760936      0.19039254      0.49287749
C       1.23881956      0.15962590      0.07642817
C       2.12960650      1.03534575      0.71079596
C       3.47656541      1.07350899      0.34042949
C       3.94350595      0.24061603     -0.67282270
C       3.06283797     -0.62574683     -1.31624362
C       1.71484394     -0.66368192     -0.94570154
H      -1.96764997      1.77241844      0.80905017
H      -3.28446699      1.33140524     -0.28377696
H      -3.50739806      1.19771989      1.48425663
H      -4.25205189     -1.06763849      1.13104949
H      -3.09291319     -2.29954661      0.58788707
H      -3.82800296     -1.19710077     -0.60412934
H      -0.31372853      0.79116044      1.27463545
H       1.78991706      1.69640598      1.50326052
H       4.15981666      1.75289100      0.84304410
H       4.99044221      0.26660100     -0.96305161
H       3.42018025     -1.27583740     -2.11081028
H       1.05671199     -1.34328996     -1.47887041
