39
CC(C)C(C)(C)C(C)(C)C(C)(C)S
C      -2.44533677      0.37032908      1.53245826
C      -1.74163089      0.54192671      0.16968711
C      -2.85797506      0.81077849     -0.85833906
C      -0.72182953     -0.62776082     -0.24383293
C      -1.28702936     -1.97092007      0.32082654
C      -0.73861352     -0.85004861     -1.78172086
C       0.83349277     -0.37465981      0.28546502
C       0.80305918      0.02529695      1.78980367
C       1.60290970     -1.73981178      0.27731453
C       1.72272155      0.73599557     -0.52111565
C       3.02732789      1.12287654      0.23287759
C       0.99994204      2.06655140     -0.79655023
S       2.34703929      0.15461454     -2.17625818
H      -3.17464568     -0.44626809      1.51393749
H      -1.75298754      0.18893112      2.35374133
H      -2.99712392      1.28309310      1.78774813
H      -1.18694359      1.47562767      0.24918900
H      -3.52407314      1.60782592     -0.50779541
H      -3.47183843     -0.08000770     -1.02662482
H      -2.45299305      1.14892451     -1.81657712
H      -2.34090212     -2.09951696      0.04608981
H      -1.22020770     -2.03108493      1.41030398
H      -0.76267132     -2.84065418     -0.09044241
H      -0.02906136     -1.62333620     -2.09029460
H      -0.52100505      0.06145372     -2.34062629
H      -1.71802594     -1.20393064     -2.12578256
H       1.80260526      0.00310573      2.23802371
H       0.21545769     -0.67875622      2.38526910
H       0.40063213      1.03065553      1.93987708
H       2.65546961     -1.62154400      0.55049660
H       1.57033310     -2.23518796     -0.69640726
H       1.19049028     -2.44023072      1.01241532
H       3.64870324      1.81416384     -0.35226101
H       3.65212090      0.25867499      0.47681973
H       2.80687553      1.65026189      1.16766291
H       0.67978991      2.54134829      0.13682387
H       1.66082232      2.79284919     -1.28840255
H       0.12889766      1.95459665     -1.44626562
H       3.19620391     -0.77616274     -1.71753422
