21
CC(=O)Nc1ccc(N)cc1
C       3.92983842      0.38884628     -0.03737231
C       2.49291551      0.84092376      0.04785420
O       2.21671923      2.03180831      0.13584976
N       1.60708330     -0.21928007     -0.01822086
C       0.19912591     -0.16585295      0.03436330
C      -0.53312124      1.00699294      0.20935173
C      -1.93333162      0.97018070      0.25190100
C      -2.62650578     -0.22763551      0.07710236
N      -4.01499499     -0.27182155      0.23827754
C      -1.89175969     -1.40716676     -0.03672982
C      -0.49282112     -1.37681061     -0.07823301
H       4.07483282     -0.55859797      0.48969905
H       4.57439581      1.13829097      0.43103516
H       4.21087058      0.27251420     -1.08729952
H       2.00864287     -1.14100443     -0.13208913
H      -0.04935820      1.97060730      0.33291747
H      -2.47443777      1.89725656      0.42275418
H      -4.45665702     -1.06943252     -0.20735400
H      -4.48022981      0.60207235      0.01249636
H      -2.40172566     -2.36492683     -0.09453325
H       0.04051845     -2.31696416     -0.18758856
