21
CC(=O)OCc1ccccc1
C       3.72528286      0.79265037     -0.47519724
C       2.82228211     -0.37523459     -0.22171235
O       3.20958138     -1.51435433     -0.00357198
O       1.52414641      0.02096720     -0.27088461
C       0.59178961     -1.03725847     -0.03858100
C      -0.79681440     -0.45866880     -0.12202983
C      -1.41784636      0.06853140      1.01908435
C      -2.69755719      0.62009915      0.93737640
C      -3.36475233      0.65773647     -0.28560340
C      -2.75186169      0.14847777     -1.42896074
C      -1.47220138     -0.40352900     -1.34945574
H       4.76681369      0.46131309     -0.43306418
H       3.53039984      1.20301347     -1.46917807
H       3.57084611      1.55426353      0.29322317
H       0.71508855     -1.82439226     -0.79286259
H       0.75516466     -1.47633515      0.95350938
H      -0.90559684      0.05440113      1.97858733
H      -3.17251116      1.02387176      1.82770958
H      -4.36040441      1.08877221     -0.34866185
H      -3.26916830      0.18442756     -2.38416138
H      -1.00268115     -0.78875251     -2.25189619
