48
CCN(CC)CCCC(C)Nc1ccnc2cc(Cl)ccc12
C       2.11141651      0.24218095      2.71567649
C       3.27845289      0.03425551      1.75454305
N       2.88140101     -0.68595127      0.53188018
C       4.04441164     -1.32407998     -0.11173873
C       5.11876286     -0.39066519     -0.66345082
C       2.10308883      0.17415266     -0.37781187
C       1.46951549     -0.56396079     -1.56739874
C       0.61736690     -1.78969190     -1.20135461
C      -0.46492612     -1.52967239     -0.13590969
C      -1.24508080     -2.81817244      0.13407229
N      -1.37345593     -0.49123195     -0.63312355
C      -2.20706679      0.27137904      0.20054783
C      -2.07918410      0.26076809      1.59018839
C      -2.90967169      1.05882513      2.35381933
N      -3.84011913      1.88410960      1.84227630
C      -3.94470856      1.95519192      0.50962159
C      -4.88024450      2.83711072     -0.00984240
C      -5.04029977      2.99708758     -1.38263510
Cl     -6.20944588      4.10507783     -1.98728271
C      -4.25517374      2.27412673     -2.26714962
C      -3.31186780      1.37782845     -1.76485402
C      -3.14274222      1.18574757     -0.37021324
H       1.36851913      0.94053781      2.32032695
H       2.47829245      0.65678039      3.66062101
H       1.61128653     -0.70607936      2.93943175
H       3.74205136      0.99995165      1.51909874
H       4.02729377     -0.55377576      2.30049108
H       3.70426346     -1.98362980     -0.91806817
H       4.51373304     -2.00362530      0.61172626
H       5.53445641      0.25614946      0.11480370
H       5.94433527     -0.98197668     -1.07389212
H       4.73495078      0.23797499     -1.47211321
H       2.71818286      0.99909127     -0.75778874
H       1.28578494      0.65486472      0.16992440
H       0.84683904      0.15196002     -2.11903208
H       2.24855979     -0.87669305     -2.27297994
H       1.27659255     -2.59359091     -0.85106211
H       0.14884937     -2.16035992     -2.12287601
H       0.03495245     -1.21975417      0.78561390
H      -2.00917733     -2.66767167      0.90356405
H      -1.75431249     -3.17271729     -0.76917909
H      -0.57498573     -3.61207216      0.48033039
H      -1.84904037     -0.77885513     -1.48416583
H      -1.36072639     -0.36372137      2.10464236
H      -2.84254374      1.05387899      3.43813824
H      -5.49085623      3.41583031      0.67878150
H      -4.36437242      2.40306338     -3.34043290
H      -2.69335765      0.84002370     -2.47816523
