8
ClCC(Cl)Cl
Cl     -2.02685325      0.59066572     -0.57075649
C      -0.66474423     -0.42637809     -0.02162247
C       0.66343353      0.32169112     -0.06291433
Cl      2.00484895     -0.81146339      0.27297613
Cl      0.72111023      1.64464234      1.13428683
H      -0.64214272     -1.29421181     -0.68862043
H      -0.90198049     -0.78050167      0.98711510
H       0.84632798      0.75555577     -1.05046436
