21
CCOCCOC(C)=O
C      -3.27110327      0.63704599      1.07630101
C      -2.61856480     -0.06601976     -0.09720233
O      -1.25326066     -0.31369401      0.22861280
C      -0.56766130     -0.98409964     -0.83399096
C       0.89286939     -1.18936668     -0.44251401
O       1.56518972      0.08119602     -0.46624275
C       2.87212240      0.02559226     -0.09640290
C       3.46690539      1.40026364     -0.10738894
O       3.48581810     -0.99119784      0.19518651
H      -2.75839316      1.57969478      1.29461409
H      -4.32398259      0.84752911      0.86884455
H      -3.20484272      0.02181945      1.97974559
H      -2.67720085      0.56675709     -0.98952157
H      -3.12990668     -1.01452448     -0.29456750
H      -1.04272258     -1.95626866     -1.00443859
H      -0.63319091     -0.37624405     -1.74345951
H       0.95635208     -1.61159033      0.56703679
H       1.37368495     -1.85835387     -1.16479500
H       3.43513565      1.80965911     -1.12012364
H       2.92224081      2.04561834      0.58641333
H       4.51051101      1.34618353      0.21559252
