20
CSCCC(N)C(=O)O
C      -3.71779139      0.00639120      0.33055985
S      -2.20468480     -0.60160881      1.11508219
C      -1.01181629     -0.08522522     -0.16361293
C       0.41027468     -0.40474045      0.30411815
C       1.45263869     -0.21622848     -0.80312530
N       2.77392445     -0.76654213     -0.35580829
C       1.66648277      1.26278526     -1.18487240
O       0.78591680      2.07834055     -1.40173733
O       2.99088152      1.55163413     -1.29057295
H      -3.66917428      1.09037391      0.19861383
H      -4.57353102     -0.22798914      0.96919844
H      -3.86435137     -0.47712256     -0.63873437
H      -1.13763424      0.98660981     -0.33333054
H      -1.23989198     -0.62151433     -1.09016708
H       0.66196146      0.22743990      1.16629361
H       0.45177566     -1.44871581      0.64404649
H       1.16533106     -0.74746539     -1.71733203
H       2.90050164     -0.52601043      0.63491851
H       2.69433985     -1.78871236     -0.34604397
H       3.46484680      0.70830035     -1.07516221
