15
O=C([O-])[O-].O=C([O-])[O-].[OH-].[OH-].[Pb+2].[Pb+2].[Pb+2]
O      -0.09057138      1.27470374     -0.00381006
C       0.00906388      0.03407951     -0.00016666
O       1.24267845     -0.59502625     -0.00498298
O      -1.16117095     -0.71375701      0.00895970
O      -0.48926284      1.16395076      0.20335218
C      -0.01639852      0.03393445      0.00608765
O      -0.83578670     -1.06716396     -0.09158457
O       1.34144806     -0.13072126     -0.11785527
O       0.49552630      0.00000000      0.00000000
O       0.49015931      0.00000000      0.00000000
Pb      0.00000000      0.00000000      0.00000000
Pb      0.00000000      0.00000000      0.00000000
Pb      0.00000000      0.00000000      0.00000000
H      -0.49552630      0.00000000      0.00000000
H      -0.49015931      0.00000000      0.00000000
