42
CCCCCCCCCCc1ccccc1
C       7.03051267      1.19223735      0.39482745
C       5.69199038      0.47159502      0.45073545
C       5.28233008     -0.05025935     -0.92699953
C       3.99709390     -0.88257564     -0.90540321
C       2.75409151     -0.07279980     -0.52994019
C       1.48634953     -0.92378556     -0.63510415
C       0.24241644     -0.11809877     -0.25659694
C      -1.02454982     -0.96851326     -0.36209071
C      -2.26852874     -0.16297225      0.01658757
C      -3.53476702     -1.01553045     -0.08954198
C      -4.76779124     -0.23047277      0.28194453
C      -5.20932823     -0.18763879      1.61107013
C      -6.34099435      0.55265278      1.95682089
C      -7.03823129      1.25993311      0.97916770
C      -6.60346771      1.22940921     -0.34455406
C      -5.47201207      0.48965777     -0.69214432
H       7.82408289      0.52073283      0.05180642
H       7.30406805      1.56092832      1.38840574
H       6.98647830      2.04877990     -0.28543292
H       5.76197220     -0.36146773      1.15956798
H       4.93736486      1.16571303      0.83545034
H       5.16472780      0.79015090     -1.62194297
H       6.08877628     -0.67828036     -1.32585175
H       3.85418097     -1.31507913     -1.90353923
H       4.11523051     -1.72360357     -0.21134141
H       2.66789212      0.79712703     -1.19207078
H       2.84691970      0.30519084      0.49424740
H       1.38097143     -1.30160917     -1.65937281
H       1.57407097     -1.79596202      0.02416647
H       0.34697459      0.25961554      0.76779988
H       0.15528668      0.75428620     -0.91564110
H      -1.12931516     -1.34596905     -1.38655532
H      -0.93729008     -1.84085274      0.29699034
H      -2.35248383      0.71251651     -0.63975281
H      -2.16088674      0.21886033      1.03978316
H      -3.45421003     -1.89564044      0.56107461
H      -3.64488698     -1.40444953     -1.10983592
H      -4.67246927     -0.73087707      2.38530336
H      -6.67742983      0.57853579      2.98983022
H      -7.91884405      1.83647186      1.24914295
H      -7.14467402      1.78327049     -1.10698461
H      -5.14162142      0.47877265     -1.72823577
