24
CCCCCCCS
C      -4.03540781     -0.05139255      0.16571863
C      -2.71620387      0.47387878     -0.37769410
C      -1.52337638     -0.17405977      0.32483682
C      -0.19839679      0.35700646     -0.22466970
C       0.99541079     -0.29142522      0.47837887
C       2.32191969      0.23984695     -0.07134773
C       3.50598714     -0.41315638      0.63626034
S       5.07528489      0.22575851     -0.01650676
H      -4.87463321      0.42514536     -0.35054074
H      -4.13078362      0.15948428      1.23565798
H      -4.11689124     -1.13324589      0.01980870
H      -2.66671720      0.27593166     -1.45476095
H      -2.68052874      1.56153039     -0.24561185
H      -1.56611148     -1.26213670      0.19318225
H      -1.57992459      0.02340361      1.40227860
H      -0.14197368      0.15934241     -1.30204470
H      -0.15577262      1.44502519     -0.09279901
H       0.95272593     -1.37947320      0.34639663
H       0.93887746     -0.09366583      1.55577465
H       2.35689239      1.32845309      0.06246412
H       2.37009077      0.04043803     -1.14934264
H       3.47182842     -0.20926220      1.71121009
H       3.48888928     -1.49870275      0.49620017
H       4.90881447     -0.20872422     -1.27439085
