34
CN1C(=O)C(O)N=C(c2ccccc2)c2cc(Cl)ccc21
C      -3.10898527     -0.44948832      1.99886340
N      -2.21532449     -0.64628894      0.86500330
C      -1.98977062     -1.97043577      0.46193102
O      -2.40296949     -2.93679558      1.11355041
C      -1.23177056     -2.18252276     -0.88064362
O      -1.39626772     -3.51762733     -1.33352972
N       0.16418605     -1.85592961     -0.63386446
C       0.47295304     -0.61547227     -0.45708177
C       1.90720993     -0.30407309     -0.15654677
C       2.90910317     -1.07706504     -0.75575886
C       4.25291428     -0.80829860     -0.49181138
C       4.59961637      0.22492142      0.37807161
C       3.60488549      0.98596356      0.99205812
C       2.25871891      0.72089240      0.73128848
C      -0.50329926      0.51199400     -0.53877260
C      -0.11660796      1.63717856     -1.29029545
C      -0.92503829      2.76713470     -1.32089459
Cl     -0.43987695      4.14471498     -2.22676721
C      -2.11815776      2.79036219     -0.61121372
C      -2.51763047      1.66455477      0.11677744
C      -1.73600587      0.49398140      0.14692156
H      -2.81907206      0.44122120      2.56535239
H      -4.13528957     -0.35304835      1.63100929
H      -3.06936313     -1.30125215      2.68483638
H      -1.67777731     -1.55577691     -1.66054248
H      -1.05540587     -4.05221993     -0.59429366
H       2.64634723     -1.89014315     -1.42943148
H       5.02787270     -1.40954902     -0.96080258
H       5.64714712      0.42999050      0.58577396
H       3.87943696      1.78058129      1.68163684
H       1.50104468      1.30925428      1.24104657
H       0.81965830      1.63610187     -1.84503352
H      -2.75346659      3.67303325     -0.62991153
H      -3.47901496      1.71410645      0.62307462
