9
O=C1CCO1
O       2.31344242     -0.47923237     -0.26907224
C       1.11403258     -0.36032805     -0.17899310
C       0.11365442      0.71656392      0.26911495
C      -0.91271600     -0.34813158     -0.09877361
O       0.14646117     -1.26235102     -0.48701845
H       0.11397624      1.61173710     -0.35471757
H       0.17673818      0.96959262      1.32859552
H      -1.50154327     -0.74367029      0.73360909
H      -1.56404574     -0.10418033     -0.94274458
