16
Nc1cccc([N+](=O)[O-])c1
N      -2.60948444     -0.24157507      0.25693862
C      -1.26542239      0.08831383      0.05776486
C      -0.85065734      1.42221060      0.13910568
C       0.50321924      1.76313175      0.06494903
C       1.46745824      0.76430133     -0.05057859
C       1.06198468     -0.57539129     -0.07293381
N       2.07009865     -1.63721223     -0.16364181
O       1.67116106     -2.80727158     -0.25451527
O       3.26352373     -1.30237635     -0.14942578
C      -0.29662890     -0.91580040      0.00091331
H      -3.26418337      0.48778103     -0.00948317
H      -2.87975622     -1.15106250     -0.10608087
H      -1.58594447      2.21441648      0.26245811
H       0.80229693      2.80771513      0.11198707
H       2.51813890      1.04118607     -0.10334848
H      -0.60580428     -1.95836681      0.01589111
