22
CCCC(=O)CCC
C       3.13468947     -0.72221811     -0.44719168
C       2.70630413      0.39460240      0.49454820
C       1.31924199      0.94057331      0.16417403
C       0.18145527      0.00106954      0.53772385
O       0.35558439     -0.99899972      1.23205829
C      -1.19286505      0.40166999      0.02392445
C      -2.28410423     -0.58050441      0.43972344
C      -3.64490616     -0.15851367     -0.08970253
H       3.14311550     -0.37652733     -1.48589496
H       4.14529771     -1.05939281     -0.19564637
H       2.46591008     -1.58525406     -0.37874412
H       2.74304919      0.03423592      1.52897152
H       3.43335326      1.21140113      0.41445552
H       1.25053892      1.16633368     -0.90563342
H       1.15885954      1.87122638      0.72035465
H      -1.41985062      1.39980885      0.41470363
H      -1.14013767      0.45797357     -1.06904204
H      -2.04613523     -1.58394520      0.06697011
H      -2.32750071     -0.65081375      1.53316753
H      -4.41132894     -0.87581117      0.22011557
H      -3.64370453     -0.11393197     -1.18347938
H      -3.92686630      0.82701742      0.29443698
