6
C=CF
C      -0.70578727     -0.02283525      0.04238877
C       0.61436227      0.11009117     -0.05486287
F       1.43767965     -0.94014934      0.11013658
H      -1.14516485     -0.99027146      0.25859928
H      -1.36481676      0.82687289     -0.09148559
H       1.16372696      1.01629199     -0.26477618
