48
C=CCC1=C(C)C(OC(=O)C2C(C=C(C)C)C2(C)C)CC1=O
C       7.05291926      0.83684561     -1.43637486
C       6.52359603     -0.11717191     -0.65991497
C       5.30925971     -0.92746040     -1.01741073
C       4.15142194     -0.59934094     -0.14450211
C       3.10791676      0.22696889     -0.31169433
C       2.85713452      1.12549695     -1.47796784
C       2.12479324      0.21893308      0.82827854
O       0.87924516     -0.26506818      0.31503719
C      -0.18385002     -0.06556079      1.13534805
O      -0.14738792      0.43444371      2.24907349
C      -1.43603867     -0.53324654      0.49962849
C      -2.77085755      0.07225869      0.88499713
C      -3.93850256     -0.80956319      1.03340348
C      -5.23251980     -0.48170134      0.85117284
C      -5.69930338      0.89028277      0.44809548
C      -6.33041639     -1.49210772      1.04582210
C      -2.18302672      0.35464826     -0.48828493
C      -2.73985848     -0.31660372     -1.72241344
C      -1.69775015      1.76223364     -0.74484175
C       2.71738907     -0.73807383      1.85864830
C       3.93579829     -1.25536718      1.15795759
O       4.68430748     -2.10936694      1.61170883
H       7.93775245      1.38342916     -1.12178150
H       6.61955321      1.09783623     -2.39642390
H       6.99511475     -0.34545818      0.29340852
H       5.55578744     -1.99434116     -0.93507922
H       5.04205619     -0.77245969     -2.07021356
H       2.72830978      2.15861549     -1.13817976
H       1.94826976      0.82324871     -2.00881306
H       3.68566437      1.11711258     -2.19115679
H       2.01018634      1.23228214      1.23676219
H      -1.41977669     -1.59869680      0.28916153
H      -2.74325155      0.87009299      1.62512971
H      -3.71286864     -1.83085604      1.34191416
H      -6.22650044      0.84253281     -0.51156589
H      -4.87970845      1.60790260      0.34144033
H      -6.38709020      1.28974382      1.20107729
H      -6.90827180     -1.60742387      0.12270501
H      -7.00610196     -1.16700112      1.84256353
H      -5.94308333     -2.47947666      1.32172794
H      -1.99337774     -0.30355123     -2.52467366
H      -3.01312462     -1.36243397     -1.54581457
H      -3.63191787      0.21273490     -2.07713807
H      -0.85411375      1.75214395     -1.44316849
H      -1.37200498      2.26627132      0.17158529
H      -2.50023328      2.36560655     -1.18390759
H       3.03361098     -0.20315896      2.75959462
H       2.05085020     -1.56617448      2.11484205
