41
CCCN(CCC)c1c([N+](=O)[O-])cc(S(N)(=O)=O)cc1[N+](=O)[O-]
C      -2.88155974     -0.85558774     -1.91265970
C      -1.98523130     -1.72601951     -1.04381278
C      -1.83783770     -1.19006147      0.38241934
N      -1.05397563      0.06496029      0.41185563
C      -1.56578715      1.12585024      1.30765320
C      -2.72021086      1.87376016      0.63587824
C      -3.23006963      3.00813846      1.51035716
C       0.34608466     -0.06411078      0.40878035
C       1.09212125      0.40042111     -0.69805457
N       0.41977926      1.06280041     -1.79813268
O       0.31338913      0.42046193     -2.85218872
O       0.08341160      2.24195399     -1.62586769
C       2.48690646      0.27184683     -0.81378269
C       3.19128849     -0.33974603      0.21917137
S       4.95105544     -0.49240185      0.11264972
N       5.11077723     -1.97575526     -0.64869372
O       5.47992621     -0.65674413      1.44461110
O       5.44460562      0.49934837     -0.81091582
C       2.52441861     -0.78087132      1.36043394
C       1.12615279     -0.63356688      1.43869278
N       0.52456880     -1.08479786      2.67626984
O       0.43169499     -2.30890510      2.83679210
O       0.20223564     -0.21753062      3.49759402
H      -3.88505418     -0.77693902     -1.48230259
H      -2.97644848     -1.29277476     -2.91165790
H      -2.47814307      0.15431944     -2.02498481
H      -2.42592731     -2.72900773     -0.99437864
H      -1.00520995     -1.83616558     -1.52051750
H      -2.83795917     -1.02578658      0.80195497
H      -1.37830137     -1.96462201      1.00253809
H      -0.77441676      1.84952691      1.54434984
H      -1.90782478      0.69165874      2.25449608
H      -3.54831532      1.18823630      0.42432963
H      -2.39428710      2.28047278     -0.32797636
H      -2.43867376      3.73849490      1.70674585
H      -4.05560508      3.52767748      1.01390055
H      -3.59505649      2.62932865      2.47033824
H       3.00469331      0.64614645     -1.69619757
H       5.56721316     -1.85865948     -1.55540785
H       5.59734990     -2.63463945     -0.03791224
H       3.07822227     -1.23071028      2.18445718
