45
CCOP(=S)(OCC)Oc1cc(C)nc(N(CC)CC)n1
C      -1.80381390     -3.28544390     -0.15082451
C      -2.42176599     -2.05241196      0.46766442
O      -1.51377530     -1.52786104      1.41748421
P      -1.62242182      0.03105694      1.85606121
S      -0.48503843      0.58560574      3.33277963
O      -3.21414563      0.12458075      2.17957782
C      -3.75832123      1.37755338      2.55943912
C      -5.23731755      1.38253405      2.22464370
O      -1.55913745      0.85748016      0.46675114
C      -0.47017649      0.80474339     -0.36309391
C      -0.56060264      1.46541946     -1.55923172
C       0.53156657      1.33810870     -2.38070308
C       0.54446105      1.97523422     -3.73638901
N       1.61172640      0.61439699     -2.02864002
C       1.62668479      0.01602479     -0.82514067
N       2.73487101     -0.71221556     -0.45298602
C       3.91119036     -0.72053863     -1.30887172
C       4.74406308      0.54508301     -1.14183385
C       2.86075403     -1.14259268      0.93466635
C       2.24679199     -2.52203922      1.12601050
N       0.58715924      0.09083896      0.01741963
H      -2.49009014     -3.75119512     -0.86578321
H      -1.54614140     -4.01945350      0.61946746
H      -0.87364955     -3.02764347     -0.66988530
H      -3.35558892     -2.31146045      0.97612414
H      -2.63763192     -1.31507640     -0.31008231
H      -3.61670453      1.51492526      3.63688454
H      -3.26003559      2.19169350      2.02496361
H      -5.70874826      2.31565015      2.54499851
H      -5.38258853      1.27012420      1.14446507
H      -5.74910101      0.54235325      2.70380760
H      -1.43748143      2.02765138     -1.83877126
H      -0.17304489      1.47157291     -4.39331467
H       0.28199421      3.03729227     -3.66506066
H       1.53759899      1.90303113     -4.19211058
H       4.53453844     -1.58604693     -1.05342297
H       3.63832705     -0.85998660     -2.36164101
H       5.02283234      0.70937605     -0.09379642
H       5.66366114      0.47036566     -1.73213856
H       4.19717992      1.43085265     -1.48543084
H       3.91774747     -1.19211010      1.21667704
H       2.41127108     -0.42552150      1.62668431
H       2.73956370     -3.26376577      0.48700854
H       2.35100547     -2.84441266      2.16800075
H       1.18233428     -2.52554044      0.87757302
