53
CCCCCCCCCCCCCCCCC(=O)O
C      -7.88709772     -0.74945499     -0.72047343
C      -6.70512861     -0.17394188      0.04534140
C      -6.91261070     -0.28298358      1.55429001
C      -5.83633960      0.41771456      2.39096985
C      -4.42848525     -0.16974910      2.24408056
C      -3.55734915      0.60662914      1.25223694
C      -2.16551215     -0.01771973      1.13106950
C      -1.29035675      0.76036735      0.14696857
C       0.10058893      0.13585168      0.02554568
C       0.97590189      0.91403211     -0.95835963
C       2.36752082      0.28878634     -1.08012903
C       3.24243603      1.07198500     -2.06142782
C       4.60774115      0.42464706     -2.31081109
C       5.51057847      0.41271984     -1.07476975
C       6.89983117     -0.14018764     -1.41020568
C       7.83901201     -0.12472914     -0.20782596
C       7.42971417     -1.10468471      0.85490174
O       6.99715189     -0.82914402      1.96121014
O       7.59145569     -2.38651034      0.47799801
H      -8.03510281     -1.80635022     -0.47669326
H      -8.80925475     -0.20922463     -0.48357592
H      -7.71484154     -0.67004647     -1.79842464
H      -5.80278709     -0.71882612     -0.25111310
H      -6.56939629      0.87542437     -0.23981603
H      -6.96480972     -1.34070871      1.84099424
H      -7.88289120      0.15794090      1.81583204
H      -6.13431363      0.31566602      3.44261544
H      -5.83441003      1.49302509      2.17664883
H      -4.48005242     -1.22865780      1.96483790
H      -3.93778629     -0.12974225      3.22519525
H      -3.46221061      1.64645492      1.58855119
H      -4.02891646      0.63338385      0.26515163
H      -1.68350709     -0.03596447      2.11610858
H      -2.25815410     -1.05816289      0.79654163
H      -1.19799192      1.80099745      0.48095032
H      -1.77215406      0.77841576     -0.83820477
H       0.00821856     -0.90471304     -0.30863863
H       0.58224556      0.11757002      1.01076819
H       0.49351873      0.93240650     -1.94321741
H       1.06901521      1.95451931     -0.62408593
H       2.27454536     -0.75021414     -1.41843489
H       2.83773131      0.26850649     -0.09071704
H       3.38250014      2.09680037     -1.69656778
H       2.72065579      1.14830823     -3.02354550
H       5.10719933      0.98128034     -3.11356397
H       4.46765998     -0.59964929     -2.67713033
H       5.60686038      1.43145158     -0.68047362
H       5.05563286     -0.19956992     -0.28902301
H       6.80352493     -1.15979180     -1.80241325
H       7.34571028      0.46828644     -2.20640071
H       8.86081105     -0.37206886     -0.51810048
H       7.88082303      0.87510521      0.23907072
H       7.29287525     -2.90216325      1.25626423
