13
Oc1ccc(Br)cc1
O      -2.50900869      0.41613945     -0.21005049
C      -1.16661063      0.20545689     -0.10231146
C      -0.65781192     -0.99944975      0.37523117
C       0.72530300     -1.17068204      0.46844462
C       1.57967202     -0.13633578      0.08346847
Br      3.45128596     -0.37101066      0.21075418
C       1.06448051      1.06840001     -0.39413138
C      -0.31749341      1.23825551     -0.48678814
H      -2.97554242     -0.38101075      0.09035508
H      -1.31499958     -1.80893346      0.67673632
H       1.12637928     -2.10964084      0.84067352
H       1.72520155      1.87662638     -0.69508044
H      -0.73085567      2.17218504     -0.85730143
