15
O=C(O)CSCC(=O)O
O       2.16418199     -0.12774317     -0.74835238
C       1.76133006     -0.30362970      0.38900850
O       2.26522829     -1.31820213      1.12702372
C       0.72701354      0.48318582      1.16053519
S      -0.01994167      1.84855450      0.20957708
C      -0.82670505      0.92688832     -1.13833564
C      -1.91303026      0.01764768     -0.62725275
O      -3.06882078      0.32242097     -0.38258429
O      -1.48782659     -1.24626077     -0.41526491
H       2.91802900     -1.74145139      0.52952314
H      -0.05639720     -0.18673254      1.52319513
H       1.22624255      0.93078230      2.02572560
H      -1.29116324      1.64526336     -1.82226892
H      -0.10743214      0.36129200     -1.73616832
H      -2.29070851     -1.71080536     -0.09436115
