27
C#CC(C)(O)CCC=C(C)C
C       3.45462375     -1.95313069      1.32026189
C       2.95173447     -1.11123650      0.62621805
C       2.34141090     -0.07720993     -0.23280985
C       2.50886914      1.30747388      0.39504828
O       3.04330824     -0.06554967     -1.48112850
C       0.87310104     -0.40796780     -0.55667414
C      -0.07149060     -0.40817999      0.64892757
C      -1.46989955     -0.78806105      0.24088914
C      -2.53192851      0.02607714      0.08373577
C      -3.87686883     -0.53355494     -0.30100431
C      -2.50861132      1.52079334      0.24695595
H       3.89775694     -2.70417648      1.93304772
H       3.56996266      1.57310863      0.47931480
H       2.07441608      1.36668888      1.39820863
H       2.04681595      2.07793651     -0.23273391
H       3.99262807     -0.03776544     -1.27253819
H       0.82795922     -1.38641033     -1.05714779
H       0.50570347      0.30893504     -1.30495305
H      -0.06038991      0.56289908      1.15060615
H       0.26514849     -1.13618365      1.39648716
H      -1.60686342     -1.85694013      0.07409083
H      -4.62170469     -0.28644593      0.46257758
H      -4.20433822     -0.11173098     -1.25687081
H      -3.85937136     -1.62332334     -0.40734437
H      -1.50458539      1.92627576      0.39094368
H      -2.91889972      2.00276342     -0.64710444
H      -3.11848691      1.81491516      1.10724977
