40
O=C1CN=C(c2ccccc2)c2cc(Cl)ccc2N1CC1CC1
O       2.08431350      1.18066284      2.89094986
C       1.37959479      0.32370704      2.35028182
C       0.06340143     -0.10775614      2.98313346
N      -1.02892161      0.47139224      2.20716753
C      -1.23132612      0.00862291      1.01913272
C      -2.28358739      0.67935530      0.19094194
C      -2.12236425      0.84277694     -1.19112178
C      -3.11823222      1.47424916     -1.93908141
C      -4.26787816      1.95251267     -1.31023848
C      -4.42219785      1.80958085      0.06842902
C      -3.42970412      1.17909451      0.82024488
C      -0.49276511     -1.15091549      0.43687189
C      -1.27054396     -2.13595287     -0.20208426
C      -0.65726633     -3.20436155     -0.84375803
Cl     -1.61225427     -4.39448010     -1.63438938
C       0.72599957     -3.31044652     -0.84979548
C       1.50104623     -2.34746159     -0.19429154
C       0.91313571     -1.25679274      0.47463158
N       1.75450419     -0.32758034      1.16809838
C       3.01782222      0.09598306      0.55745656
C       2.76395034      1.18891985     -0.44281219
C       2.42108811      0.87946614     -1.87919554
C       3.76405771      1.46316860     -1.53748604
H       0.02584338      0.29764890      4.00034772
H      -0.00151107     -1.19687474      3.08284327
H      -1.22223278      0.50300466     -1.69574160
H      -2.99395712      1.60304282     -3.01148394
H      -5.03996740      2.44866911     -1.89340683
H      -5.31150516      2.19530693      0.56051385
H      -3.55084813      1.08037248      1.89677411
H      -2.35652965     -2.06697856     -0.20275390
H       1.21275068     -4.14828307     -1.34365904
H       2.57525266     -2.50951190     -0.17925480
H       3.69239663      0.48359306      1.32981944
H       3.54899046     -0.74527464      0.10578776
H       2.29402693      2.05244133      0.01867390
H       2.39088023     -0.15305892     -2.20545003
H       1.69944355      1.52105008     -2.37268690
H       4.63424784      0.82261565     -1.62370279
H       3.95084651      2.49849202     -1.80150739
