34
CCCCOCCOCCOC(C)=O
C      -5.47486439      0.19159511      0.10715486
C      -4.31859897      0.23913134      1.09365515
C      -3.13746651      1.08418475      0.60793413
C      -2.47165939      0.56921197     -0.66933436
O      -2.11312053     -0.80724934     -0.56924165
C      -0.87445846     -1.04130388      0.10012041
C       0.30590281     -0.96058241     -0.86598270
O       1.51685934     -1.21459075     -0.15397502
C       2.65523044     -1.18211776     -1.02245211
C       3.91974327     -1.43509898     -0.20158899
O       4.17852233     -0.35677118      0.71732200
C       4.73984901      0.75470498      0.17250085
C       4.94906555      1.79488648      1.22960239
O       5.03217646      0.89738666     -1.00647210
H      -5.80959143      1.20017958     -0.15501536
H      -5.19580277     -0.33130507     -0.81233116
H      -6.32264988     -0.34287109      0.54772945
H      -3.98782481     -0.78148903      1.31742067
H      -4.68238535      0.66369274      2.03710857
H      -3.46462194      2.11835365      0.44735818
H      -2.39680765      1.11262163      1.41545963
H      -1.59940718      1.18298208     -0.92010199
H      -3.16847351      0.65911728     -1.50905258
H      -0.73632890     -0.36403002      0.95030344
H      -0.91660435     -2.05186339      0.52221015
H       0.17747801     -1.69809686     -1.66726225
H       0.35330743      0.03049085     -1.33038276
H       2.69612662     -0.20671762     -1.51774105
H       2.54845518     -1.96840664     -1.77774098
H       3.79418196     -2.33551291      0.40908267
H       4.78889380     -1.59233939     -0.85070514
H       3.98740269      2.08204331      1.66215924
H       5.61937961      1.40933242      2.00186809
H       5.40809154      2.68043148      0.78077524
