26
OCCOc1ccc2ccccc2c1
O       4.70189557     -0.56428849      1.06572783
C       4.42469208      0.25156584     -0.07155159
C       3.02688525      0.85446675      0.03853091
O       2.08699597     -0.22543810     -0.00434684
C       0.76040909      0.10270866      0.05791918
C       0.24003035      1.38577451      0.20935642
C      -1.14480142      1.58032437      0.25975209
C      -2.03009624      0.49624234      0.16030022
C      -3.42200099      0.67705732      0.20929163
C      -4.28655464     -0.41416672      0.10909888
C      -3.77118934     -1.69823212     -0.04102028
C      -2.39010989     -1.89395119     -0.09126060
C      -1.50685927     -0.80636483      0.00809115
C      -0.11410180     -0.98381105     -0.04028157
H       3.93906343     -1.16644205      1.15689490
H       5.18261488      1.03854793     -0.11681132
H       4.51169202     -0.37927332     -0.96179602
H       2.93425611      1.38267246      0.99458081
H       2.85991898      1.53619071     -0.80285006
H       0.87807131      2.25875611      0.29457262
H      -1.52863599      2.59127783      0.37928642
H      -3.84370032      1.67272861      0.32651740
H      -5.36177911     -0.26051621      0.14864600
H      -4.44305340     -2.54900931     -0.11894210
H      -2.00585955     -2.90478057     -0.20874210
H       0.30221692     -1.98203949     -0.15747397
