20
O=C1C=Cc2ccccc2C1=NO
O       3.36813887      0.76009066      0.02286731
C       2.14530532      0.73621700     -0.05016918
C       1.38794138      1.94835983     -0.41045930
C       0.05459016      1.92933181     -0.49189509
C      -0.72242016      0.71764626     -0.23104632
C      -2.11988632      0.76034204     -0.33247615
C      -2.88456768     -0.38295375     -0.08838429
C      -2.26186435     -1.57925760      0.25913583
C      -0.87238395     -1.63514979      0.36343499
C      -0.10115529     -0.48947785      0.11915223
C       1.38155006     -0.54984222      0.23062273
N       1.94728724     -1.68066704      0.55760616
O       3.35260623     -1.70253129      0.65417306
H       1.96798127      2.84300844     -0.60264285
H      -0.48300458      2.83505185     -0.75928585
H      -2.63098113      1.68236566     -0.60233804
H      -3.96842023     -0.33977575     -0.16963831
H      -2.85630491     -2.46995200      0.44938206
H      -0.39690215     -2.57593985      0.63580750
H       3.69249023     -0.80686643      0.44615349
