47
CCCCCCCCCCCC(=O)OC(C)C
C       7.02981275      1.77872705      0.58519941
C       7.01069922      0.29842179      0.23683672
C       5.70557082     -0.40272230      0.61947994
C       4.49454481      0.09626212     -0.17191486
C       3.23879355     -0.70830668      0.17157215
C       2.02571733     -0.20937276     -0.61546949
C       0.77019397     -1.01426125     -0.27224817
C      -0.44230421     -0.50995265     -1.05719528
C      -1.70388829     -1.34975263     -0.83592919
C      -2.20746596     -1.43237254      0.61001731
C      -2.51069161     -0.08671917      1.26334811
C      -3.58456295      0.68363575      0.53765564
O      -3.38835842      1.73282216     -0.05970557
O      -4.78349096      0.04972946      0.65223370
C      -5.89823583      0.67882103     -0.00640275
C      -6.91871013     -0.41339504     -0.30227793
C      -6.49545331      1.74336410      0.90659277
H       8.01891199      2.20006845      0.37850010
H       6.80977013      1.93599597      1.64579903
H       6.30137423      2.34000850     -0.00711644
H       7.83638596     -0.19371158      0.76461484
H       7.20123837      0.17345748     -0.83541702
H       5.83068716     -1.47830413      0.44306654
H       5.52269884     -0.27827050      1.69379039
H       4.31292190      1.15443777      0.04708409
H       4.69900711      0.01620931     -1.24636580
H       3.40921344     -1.76877114     -0.05056593
H       3.03640442     -0.63134053      1.24681275
H       1.85396165      0.85085144     -0.39305343
H       2.22917547     -0.28574955     -1.69051648
H       0.57957338     -0.93728398      0.80402927
H       0.93995861     -2.07378735     -0.49849755
H      -0.20757870     -0.52921393     -2.12903105
H      -0.63852368      0.53861907     -0.80618556
H      -2.50216965     -0.95030169     -1.47351433
H      -1.51547544     -2.37042263     -1.19226535
H      -1.47295612     -1.96582799      1.22436393
H      -3.11309754     -2.05203374      0.61775575
H      -2.84165896     -0.23404440      2.29824244
H      -1.61196131      0.53670308      1.31871190
H      -5.58149859      1.12400461     -0.95747626
H      -7.23870066     -0.91359470      0.61858097
H      -7.80088738     -0.00804752     -0.80704529
H      -6.47505456     -1.18509232     -0.94081261
H      -7.37638918      2.20644794      0.45159091
H      -5.76433895      2.53010321      1.11909650
H      -6.78316272      1.31396240      1.87264755
