19
O=C(O)C=Cc1ccccc1
O       3.86323844      0.52836033     -0.87361417
C       3.15662317     -0.43574506     -1.09428539
O       3.61418109     -1.53091477     -1.72148195
C       1.74014444     -0.60730199     -0.74990607
C       1.08425551      0.38167217     -0.12460869
C      -0.32707874      0.30759302      0.27701146
C      -0.72943979      0.96093208      1.44956278
C      -2.06612603      0.93796584      1.85574870
C      -3.01713740      0.27089515      1.08721290
C      -2.63339324     -0.36845946     -0.08950318
C      -1.29623734     -0.34618600     -0.49570715
H       4.55297506     -1.31858691     -1.90476903
H       1.28108008     -1.55232544     -1.00990906
H       1.60449125      1.30218793      0.13673255
H      -0.00290559      1.48869112      2.06385869
H      -2.36333124      1.44283989      2.77127268
H      -4.05732905      0.25428985      1.40189673
H      -3.37579993     -0.88042910     -0.69633883
H      -1.02821069     -0.83547866     -1.42865425
