39
Cc1cc(C)c(S(=O)(=O)N=c2sc(S(N)(=O)=O)nn2C)c(C)c1
C      -5.85675080     -1.25663778      0.91878645
C      -4.49942864     -0.81566986      0.45573932
C      -4.09224025      0.51042994      0.61070730
C      -2.81403736      0.94478341      0.20749751
C      -2.49028127      2.39618496      0.43794451
C      -1.92710785      0.00766238     -0.37657288
S      -0.29988907      0.51126245     -0.99531113
O      -0.06468848     -0.22208833     -2.22453022
O      -0.23117841      1.95813210     -1.03327701
N       0.69189393     -0.02165365      0.14490678
C       1.95813849      0.12703751      0.07870083
S       2.81774292     -0.60059453      1.45700182
C       4.32033851     -0.04093087      0.74951070
S       5.89798878     -0.33723171      1.50989875
N       7.08752569      0.50974916      0.65190238
O       6.21193503     -1.73599678      1.31308918
O       5.87154861      0.26710978      2.82413190
N       4.23457238      0.60872390     -0.37614852
N       2.90909515      0.68994511     -0.75572091
C       2.66352813      1.49314168     -1.94023438
C      -2.31110574     -1.35438060     -0.49111161
C      -1.42771532     -2.43590681     -1.05737063
C      -3.60033099     -1.73859831     -0.07857305
H      -6.57897965     -0.43552477      0.85514817
H      -6.23630967     -2.07103678      0.29245147
H      -5.80426808     -1.60131672      1.95634192
H      -4.78679839      1.22284236      1.05561433
H      -3.25881532      2.88766753      1.04598927
H      -1.55362989      2.50084394      0.99385829
H      -2.44628361      2.93588808     -0.51266231
H       7.66498974     -0.15103245      0.12898771
H       7.63339098      1.07713422      1.30290126
H       3.60608664      1.77092881     -2.42748534
H       2.08425977      0.94204072     -2.68283639
H       2.15602599      2.42457942     -1.67803892
H      -0.41047752     -2.37204096     -0.66226986
H      -1.41561531     -2.38566335     -2.15025791
H      -1.79427323     -3.43085322     -0.77957951
H      -3.90885591     -2.77892998     -0.17677232
