41
CN(C(=O)COC(=O)c1ccccc1)C1CCCCC1
C      -1.83278729     -3.00910433     -0.56819687
N      -1.30611578     -1.70006294     -0.19207537
C       0.08458360     -1.52679131     -0.23833621
O       0.84786018     -2.45003700     -0.53406948
C       0.63305110     -0.13917364      0.11602183
O       2.05638768     -0.10828374     -0.00384523
C       2.60764694      1.09279469      0.28334061
O       1.99263782      2.09389147      0.61653700
C       4.08740902      1.03779668      0.13743006
C       4.76126897     -0.13117037     -0.24343671
C       6.15288645     -0.12961823     -0.36602040
C       6.87654130      1.03472879     -0.10989767
C       6.21302324      2.20089684      0.26944232
C       4.82215395      2.20383233      0.39321306
C      -2.26675939     -0.59030659     -0.00041465
C      -3.52088099     -0.99022069      0.79647113
C      -4.45576223      0.20195224      0.99425755
C      -4.83843315      0.83929528     -0.33869358
C      -3.60815674      1.22284950     -1.15617705
C      -2.66294357      0.03824065     -1.34807889
H      -2.41908140     -3.40987142      0.26313354
H      -2.46674833     -2.90332034     -1.45261005
H      -1.04341325     -3.72933784     -0.79740094
H       0.36110313      0.08050478      1.15435158
H       0.20435694      0.59540813     -0.57284205
H       4.21646289     -1.05078893     -0.44771643
H       6.67133434     -1.03868052     -0.66156409
H       7.95966725      1.03270732     -0.20607542
H       6.77781873      3.10818157      0.46914489
H       4.31353578      3.11908009      0.69004109
H      -1.76517208      0.18645808      0.58599582
H      -3.22941106     -1.39396003      1.77339980
H      -4.07370738     -1.78216076      0.27664966
H      -5.36060375     -0.12292135      1.52015894
H      -3.96675754      0.94940232      1.63096332
H      -5.45353839      1.72823399     -0.15920468
H      -5.45307673      0.13660427     -0.91478925
H      -3.07353261      2.03641285     -0.65050478
H      -3.92088054      1.60636229     -2.13392608
H      -3.15055634     -0.71054594     -1.98460479
H      -1.77141073      0.37072179     -1.89210157
