19
CC1(C)COC(=O)C1O
C      -0.80037949     -0.31802066      1.38418523
C      -0.38272660      0.03122993     -0.05640979
C      -1.43676035     -0.50335656     -1.02692275
C      -0.18113945      1.53481701     -0.20943522
O       1.15179291      1.80193286      0.24196485
C       1.88053551      0.64825032      0.17755332
O       3.04977558      0.53853782      0.51235093
C       1.01968683     -0.47003276     -0.38993456
O       1.27429135     -1.76378109      0.11277424
H      -0.91761147     -1.39959021      1.51407059
H      -1.75974333      0.14882178      1.63517298
H      -0.06474983      0.02817140      2.11846216
H      -1.18058411     -0.26679968     -2.06568543
H      -1.52828774     -1.59226520     -0.94868394
H      -2.41961858     -0.06523241     -0.82094202
H      -0.88594708      2.11856546      0.39141095
H      -0.25628157      1.87069826     -1.25018173
H       1.19192231     -0.48372531     -1.47326309
H       2.24582510     -1.85822098      0.15351330
