42
CC(C)CC(C)(O)C#CC(C)(O)CC(C)C
C      -3.35323507      1.36710973     -0.66319751
C      -2.72785990      0.92698943      0.65988097
C      -3.31483633      1.76414539      1.80270327
C      -2.92699513     -0.57669075      0.97393276
C      -2.33720790     -1.59422352     -0.02610449
C      -2.51805020     -3.01601461      0.51809756
O      -3.05620279     -1.52346979     -1.25505155
C      -0.90902839     -1.34105648     -0.28699690
C       0.25164212     -1.12751764     -0.51578412
C       1.67201778     -0.84280883     -0.81278526
C       2.54049933     -1.98862515     -0.29459227
O       1.81358497     -0.79570290     -2.23022095
C       2.05356467      0.52469909     -0.19924660
C       3.54104814      0.94194208     -0.25564105
C       4.08536208      1.06872385     -1.67805764
C       3.72092394      2.27723087      0.47674443
H      -3.30738263      2.45633819     -0.77230842
H      -4.40439245      1.06692318     -0.72641799
H      -2.81810370      0.94272021     -1.51738280
H      -1.65400964      1.14625911      0.61928471
H      -4.39503669      1.60790905      1.89568830
H      -3.14000467      2.83205065      1.63337890
H      -2.84946825      1.50022338      2.75828852
H      -2.49145521     -0.76863756      1.96475689
H      -4.00632739     -0.76307624      1.06465132
H      -1.98754322     -3.16041080      1.46587613
H      -3.57920184     -3.24149874      0.67522594
H      -2.14478153     -3.76175669     -0.19450901
H      -2.57678220     -2.07704318     -1.89527757
H       2.51513715     -2.05364802      0.79868509
H       3.58161091     -1.88261395     -0.61705195
H       2.19920897     -2.95087656     -0.69639464
H       1.16200326     -0.15206201     -2.55754636
H       1.74559656      0.52993842      0.85643885
H       1.46108323      1.30946393     -0.69201316
H       4.14318048      0.19823827      0.27954374
H       5.09717512      1.48891004     -1.67156578
H       3.45381939      1.72217223     -2.28911229
H       4.15176002      0.09378394     -2.16873818
H       3.15525578      3.07791810     -0.01185080
H       4.77573582      2.57145753      0.49743049
H       3.37769542      2.20258672      1.51400468
