21
C=CC(OC(C)=O)OC(C)=O
C      -0.48808102      2.96577201     -0.67372368
C      -0.56563634      1.88250277      0.11219539
C      -0.26616273      0.47448142     -0.32816127
O      -1.44653309     -0.28048599     -0.02172848
C      -1.45186910     -1.52994250     -0.54961716
C      -2.71499269     -2.23948494     -0.16781920
O      -0.56878692     -2.02162924     -1.23716219
O       0.83399635      0.00252423      0.45204080
C       2.04903058      0.16048092     -0.13290148
C       3.11304414     -0.42650173      0.74375224
O       2.26838792      0.70593037     -1.20491679
H      -0.71743917      3.95334370     -0.28564096
H      -0.18177617      2.89371107     -1.71382846
H      -0.86445501      2.00419052      1.15018627
H      -0.07929798      0.42962384     -1.40994643
H      -2.70910009     -3.24598603     -0.59596289
H      -2.77813785     -2.32453281      0.91992989
H      -3.57828200     -1.69814663     -0.56287747
H       4.08506555     -0.32336331      0.25292367
H       2.91699885     -1.48979811      0.90364315
H       3.14402678      0.10731044      1.69682362
