51
NC(CCCCNC(=O)OCC1c2ccccc2-c2ccccc21)C(=O)O
N       4.97814202      0.74919439     -2.04292289
C       4.22258165      1.20952998     -0.83331994
C       4.14086316      0.06464910      0.18387127
C       3.12464495      0.35131305      1.29698486
C       2.87419719     -0.84699811      2.21973576
C       2.20650046     -2.05562830      1.56071630
N       0.88043538     -1.76382354      1.07013281
C       0.60385382     -1.42095848     -0.21596247
O       1.41317161     -1.34652834     -1.12680397
O      -0.71732528     -1.15752114     -0.31803362
C      -1.16215553     -0.76089047     -1.62601806
C      -2.54687630     -0.10753721     -1.55425669
C      -2.58456072      1.15017081     -0.69152273
C      -1.81993273      2.30231772     -0.80601234
C      -2.04292297      3.33450428      0.10842675
C      -3.01971955      3.20857081      1.11008541
C      -3.79123758      2.04673308      1.21666719
C      -3.56885843      1.01985946      0.31258369
C      -4.19846300     -0.27882813      0.18905534
C      -5.20447637     -0.86511053      0.93908234
C      -5.62519507     -2.15534414      0.59790118
C      -5.04178907     -2.84186805     -0.48028443
C      -4.02837722     -2.25171568     -1.23878302
C      -3.61369052     -0.97364573     -0.89352550
C       4.97847126      2.41193680     -0.23894354
O       4.53068048      3.20110807      0.57694213
O       6.24622314      2.47891445     -0.72932518
H       4.74505472      1.39425333     -2.80831703
H       4.55814088     -0.13805266     -2.34372996
H       3.23016127      1.53911776     -1.15959035
H       5.12470658     -0.11831719      0.63573792
H       3.86154668     -0.85603609     -0.33871223
H       3.49532901      1.17610948      1.91562720
H       2.17706263      0.69321123      0.86662494
H       3.82738503     -1.16606601      2.65752393
H       2.24401586     -0.50885749      3.05204596
H       2.09214610     -2.85098610      2.30588644
H       2.81961240     -2.45700456      0.74793103
H       0.09867991     -1.70790502      1.71281738
H      -1.20222117     -1.65753124     -2.25518377
H      -0.44912188     -0.05486188     -2.06993565
H      -2.89201743      0.15723558     -2.56206713
H      -1.06650061      2.40810205     -1.57936534
H      -1.45402981      4.24825303      0.04693577
H      -3.17647770      4.02611588      1.81144122
H      -4.54263136      1.96033121      1.99410307
H      -5.66191276     -0.34306674      1.77312082
H      -6.41549825     -2.63445956      1.17298286
H      -5.38647649     -3.84460138     -0.72625315
H      -3.58393451     -2.78615879     -2.07224793
H       6.32279609      1.72066676     -1.36384665
