35
O=C1NC(c2ccccc2)(c2ccccc2)C(=O)N1CO
O      -0.12591854      2.28243455     -3.06799105
C      -0.07347030      1.81834498     -1.94162698
N      -0.19557485      0.48079244     -1.67149172
C      -0.01573809      0.15586777     -0.26881896
C      -1.31495271     -0.48399795      0.23962936
C      -2.20062495      0.17549631      1.10955538
C      -3.38189473     -0.44008692      1.53443995
C      -3.70299122     -1.72197246      1.09732957
C      -2.84457340     -2.39316383      0.23291694
C      -1.66458299     -1.78069702     -0.19384127
C       1.22833240     -0.71086457     -0.01808967
C       2.11144670     -1.08577435     -1.04774390
C       3.23637486     -1.87048405     -0.77896402
C       3.50321559     -2.29106091      0.52087653
C       2.64867135     -1.92535718      1.55616498
C       1.52422550     -1.14142716      1.29068278
C       0.25128793      1.60019038      0.25541565
O       0.50792368      1.92939233      1.41093375
N       0.13895833      2.48279850     -0.78085255
C       0.42620311      3.88094509     -0.68891015
O      -0.37918405      4.45168762      0.32771682
H      -0.41839207     -0.18562381     -2.39585515
H      -1.99682772      1.17807448      1.47966149
H      -4.05331244      0.08587694      2.20931084
H      -4.62216829     -2.19665361      1.43069053
H      -3.09188227     -3.39493437     -0.10927670
H      -1.00955271     -2.33150685     -0.86714988
H       1.94640682     -0.77143311     -2.07585165
H       3.90799314     -2.15080016     -1.58697237
H       4.37959906     -2.89974685      0.72791303
H       2.85720193     -2.24679163      2.57364181
H       0.87656905     -0.86343396      2.12212454
H       0.22299219      4.38961237     -1.63526855
H       1.47930441      4.01626518     -0.42257602
H      -0.15506472      3.95803180      1.14012374
