11
CC(=O)CO
C      -1.52848407     -0.02119344      0.10158887
C      -0.13132003      0.49815757      0.29805062
O       0.10680545      1.69829768      0.44781318
C       0.98785979     -0.53341355      0.32330648
O       2.26656661      0.07703483      0.40733970
H      -2.23440974      0.81383637      0.09534845
H      -1.59316675     -0.54530204     -0.85504172
H      -1.78593354     -0.69717126      0.92056422
H       0.85411094     -1.18118356      1.19367484
H       0.95118153     -1.12863332     -0.59271895
H       2.10678980      1.01957074      0.62146269
