29
O=C(O)CNC(Cc1ccccc1)C(=O)O
O       4.27542637     -0.11415125      2.76172851
C       3.31808994      0.28509515      2.11847308
O       2.50259684      1.28882349      2.53511797
C       2.91096966     -0.23881520      0.74113375
N       1.53256729      0.23908951      0.43324364
C       1.17582923     -0.05386481     -0.99271954
C      -0.00665912      0.81523766     -1.46856791
C      -1.30524712      0.61146527     -0.71902247
C      -1.58287024      1.34915701      0.44000216
C      -2.77217987      1.14583911      1.14118495
C      -3.69702107      0.20678805      0.68946316
C      -3.43529440     -0.52740954     -0.46542754
C      -2.24618220     -0.32624685     -1.16782214
C       0.84584149     -1.53428223     -1.22145544
O       0.72585380     -2.08094505     -2.30643891
O       0.64489981     -2.23173458     -0.08106591
H       1.82910688      1.40840599      1.82211861
H       2.95474412     -1.33116501      0.75625986
H       3.62829620      0.16583859      0.02001190
H       0.88315571     -0.34240884      0.98858024
H       2.04143286      0.18449486     -1.62355218
H      -0.18807487      0.62964259     -2.53605787
H       0.27343407      1.87559426     -1.40542381
H      -0.87505871      2.09077260      0.80353860
H      -2.97915531      1.72311755      2.03881022
H      -4.62438856      0.05121957      1.23460819
H      -4.16013347     -1.25487643     -0.82187124
H      -2.06312181     -0.90544588     -2.07116016
H       0.39314250     -3.12923559     -0.38743222
