49
Cc1cccc(C(=O)O)c1S(=O)(=O)NC(=O)Nc1nc(OCC(F)(F)F)nc(N(C)C)n1
C       5.08398113      2.39035966     -0.99423781
C       4.86116320      1.03766087     -0.37256308
C       5.86670619      0.55806220      0.49078531
C       5.76577388     -0.68838372      1.10333257
C       4.65107111     -1.48271656      0.86757600
C       3.63159585     -1.03388782      0.01321668
C       2.45793075     -1.91935481     -0.13759525
O       1.29141163     -1.60789106      0.00247516
O       2.83934455     -3.16975536     -0.44829861
C       3.72674980      0.22595885     -0.61188024
S       2.45154217      0.68515973     -1.77696407
O       2.80282697      1.90678567     -2.46552495
O       2.15290576     -0.49771912     -2.56170253
N       1.12832704      0.98959678     -0.83964891
C       1.05336588      1.86141724      0.23336612
O       1.99272035      2.57269632      0.56821031
N      -0.09857032      1.89470148      0.95447377
C      -1.27940856      1.20098561      0.75139409
N      -2.22073409      1.43967412      1.64593006
C      -3.34097494      0.77136310      1.43462334
O      -4.32718178      1.00994147      2.36553645
C      -5.56588048      0.36360406      2.05292539
C      -6.61126993      0.70465992      3.09805428
F      -7.78445657      0.09308943      2.80848355
F      -6.23792125      0.29492007      4.33023800
F      -6.85156099      2.03272521      3.15214654
N      -3.56953221     -0.07955445      0.44259944
C      -2.56904736     -0.25511457     -0.41373746
N      -2.76564397     -1.09256326     -1.51029568
C      -1.56043776     -1.52283736     -2.20589873
C      -3.81715889     -2.08550773     -1.35317982
N      -1.40294612      0.37324362     -0.28165586
H       5.97332688      2.87903979     -0.57977933
H       5.24988497      2.29337141     -2.07126581
H       4.24559279      3.06099695     -0.78887599
H       6.75084989      1.16329684      0.69018973
H       6.55620880     -1.03604706      1.76427729
H       4.57572815     -2.45312142      1.35438785
H       2.00464043     -3.66271240     -0.58756954
H       0.39181733      0.28821132     -0.92657097
H      -0.10285047      2.52250618      1.74237763
H      -5.42956301     -0.72474708      2.04180428
H      -5.93024121      0.69934692      1.07416349
H      -0.98650082     -0.66887748     -2.58208114
H      -1.82080246     -2.12742619     -3.08205838
H      -0.92357076     -2.13368536     -1.55711696
H      -4.78910214     -1.61817642     -1.15744914
H      -3.93533528     -2.66773383     -2.27407927
H      -3.58477414     -2.78556174     -0.54242154
