16
C1CCOCC1
C       0.01150370     -1.12828923      0.51894013
C       1.24685434     -0.54919847     -0.16236507
C       1.18328664      0.97240589     -0.19133769
O      -0.01967661      1.41687587     -0.81855383
C      -1.18470560      0.98239797     -0.11711916
C      -1.25916075     -0.53862389     -0.08382047
H       0.04607424     -0.89912704      1.59110741
H       0.00387485     -2.21947676      0.42242243
H       1.28692743     -0.92607315     -1.19180532
H       2.15574778     -0.88353395      0.34859764
H       1.24447484      1.39332162      0.81916871
H       2.02578241      1.36941760     -0.76643687
H      -2.05818472      1.38665001     -0.63843581
H      -1.17894240      1.40354772      0.89512436
H      -1.36679683     -0.91487504     -1.10863113
H      -2.13705933     -0.86541914      0.48314466
