41
COc1cncc(-c2cncc(-c3cn4cccc(C(N)=O)c4n3)c2)c1
C       6.70096375      2.25051278     -0.27591453
O       5.38048799      1.89325902      0.11698300
C       5.01208917      0.59574951     -0.09208869
C       5.77454041     -0.40891681     -0.67005926
N       5.34263925     -1.67983798     -0.84744857
C       4.08642229     -1.95919097     -0.42583904
C       3.22476633     -1.03824299      0.17127900
C       1.87283173     -1.40782875      0.60774017
C       1.63594909     -2.53279899      1.39870855
N       0.41608059     -2.92917533      1.82754082
C      -0.63598147     -2.16055571      1.45453654
C      -0.53668730     -1.01437705      0.67219818
C      -1.73006769     -0.26276999      0.32704675
C      -1.79350574      0.87532993     -0.44863315
N      -3.12044002      1.22364338     -0.49717931
C      -3.72349387      2.29511184     -1.14955985
C      -5.05446154      2.44821018     -1.06257596
C      -5.82231096      1.48559984     -0.28667077
C      -5.23438818      0.44477450      0.34667069
C      -6.10661996     -0.49113389      1.11962095
N      -5.47814893     -1.52386730      1.74240390
O      -7.32311242     -0.35496776      1.20168531
C      -3.81509148      0.28124774      0.25370540
N      -2.99007256     -0.62105245      0.75643125
C       0.74706373     -0.64611333      0.25021617
C       3.72335217      0.26321416      0.32887371
H       7.44761508      1.67435782      0.28061403
H       6.83562743      2.13245826     -1.35618649
H       6.84711899      3.30776914     -0.03473343
H       6.78531498     -0.24142526     -1.02565215
H       3.77913771     -2.98802912     -0.60168603
H       2.45168034     -3.16951091      1.73456907
H      -1.59859179     -2.51101012      1.81947299
H      -1.04275980      1.45889752     -0.96071557
H      -3.08514799      2.96884899     -1.70724419
H      -5.57599736      3.26493030     -1.55104451
H      -6.89853421      1.63849073     -0.23612366
H      -4.47024482     -1.64491217      1.68035665
H      -6.02618873     -2.18186082      2.27651266
H       0.88512661      0.23323528     -0.37360987
H       3.11303918      1.03193681      0.79842648
