9
NC(=O)C(Br)(Br)Br
N      -1.43480993      0.05995020      0.05434398
C      -0.18235191      0.63056693      0.09941935
O      -0.12435569      1.84600910      0.28835570
C       1.03930280     -0.30679759     -0.02242686
Br      0.70445980     -1.55054520     -1.50473794
Br      1.17219226     -1.25490094      1.68472627
Br      2.63827753      0.75872301     -0.37526450
H      -1.58755841     -0.87657264     -0.30009596
H      -2.22515646      0.69356713      0.07567997
