21
CC1OC(C)OC(C)O1
C      -1.17873300      2.48822717     -0.15254391
C      -0.55625615      1.14776042     -0.50248834
O       0.76433935      1.12462878      0.01489393
C       1.34398369     -0.14736868     -0.22640845
C       2.72098246     -0.16966645      0.41403371
O       0.56864590     -1.18305865      0.35530443
C      -0.74988372     -1.13556056     -0.16567132
C      -1.57609947     -2.19765553      0.53868030
O      -1.35187227      0.12589186      0.07627879
H      -2.20692573      2.55144151     -0.52246174
H      -0.59259278      3.31331951     -0.56929002
H      -1.21234178      2.62623752      0.93421660
H      -0.53675717      1.03928612     -1.59515689
H       1.45141803     -0.31577576     -1.30630123
H       3.35660600      0.62170215      0.00448090
H       3.20732592     -1.13869755      0.26415319
H       2.64668908     -0.00393289      1.49488420
H      -0.73934579     -1.34969803     -1.24275339
H      -1.14428449     -3.19242156      0.39038615
H      -2.60933409     -2.19390037      0.17753328
H      -1.60556399     -2.01075901      1.61822980
