16
O=C1OCc2ccc(Cl)cc21
O      -1.75678840     -2.66043529      0.21016620
C      -1.57802338     -1.46181708      0.14127038
O      -2.53759905     -0.48860729      0.13183131
C      -1.96968553      0.83596649      0.04010548
C      -0.51646411      0.57990003     -0.00795287
C       0.54562113      1.46255515     -0.09785209
C       1.84112349      0.93292133     -0.12526444
C       2.04748820     -0.45656299     -0.06280644
Cl      3.65282044     -1.07540117     -0.09869228
C       0.97240141     -1.33698596      0.02752561
C      -0.29418178     -0.78133669      0.05238862
H      -2.26201018      1.40614788      0.92605901
H      -2.33768321      1.31409704     -0.87172949
H       0.38811177      2.53615426     -0.14619236
H       2.69386580      1.60529588     -0.19558534
H       1.11100340     -2.41189159      0.07672870
