22
CC=CC=CCCC
C       4.53534377      0.28178900      0.13920785
C       3.17069556     -0.12912761      0.58812691
C       2.06404080      0.02510063     -0.15373918
C       0.75405752     -0.37926539      0.30007757
C      -0.35292738     -0.22435069     -0.44171701
C      -1.72389085     -0.64295468      0.00862008
C      -2.66497253      0.55775397      0.10899154
C      -4.05773629      0.13683462      0.55149171
H       5.19992007     -0.58743208      0.12467006
H       4.94897931      1.01990107      0.83312036
H       4.52743499      0.72221205     -0.86282407
H       3.10897725     -0.57513214      1.57821122
H       2.13542611      0.47243946     -1.14317501
H       0.68262206     -0.82574089      1.28986004
H      -0.28728195      0.21756028     -1.43394325
H      -1.67532726     -1.15555040      0.97716249
H      -2.11989116     -1.36670182     -0.71384697
H      -2.26706962      1.28800669      0.82416828
H      -2.73569054      1.06376832     -0.86158933
H      -4.71477997      1.00977874      0.61622455
H      -4.49888311     -0.56847757     -0.16002325
H      -4.02904678     -0.34041155      1.53625132
