52
CC(C)C1=CC2=CC[C@H]3[C@](C)(C(=O)O)CCC[C@]3(C)[C@H]2CC1
C       5.51920856      0.69162146      0.15893820
C       4.78549797     -0.64350583      0.00275493
C       5.21045881     -1.60102686      1.12312448
C       3.28152554     -0.41913987     -0.11212689
C       2.42303930     -0.52057595      0.92077831
C       0.98294097     -0.37003946      0.78995335
C       0.19521411     -0.39931960      1.87939418
C      -1.30348489     -0.30607913      1.83701659
C      -1.88012143     -0.48503937      0.41429516
C      -3.44450045     -0.39501288      0.34117731
C      -4.07351887      0.87410913      0.95062110
C      -4.00696828     -1.62327648      1.07766394
O      -4.14769947     -2.74641931      0.61966441
O      -4.30784338     -1.40171536      2.37217932
C      -3.91082855     -0.51532843     -1.13341040
C      -3.17825628      0.42036276     -2.08653066
C      -1.67259094      0.18594246     -2.03806108
C      -1.06259267      0.36754436     -0.62469541
C      -1.04146646      1.87832634     -0.28245362
C       0.41442706     -0.20802780     -0.61604178
C       1.40373624      0.58204447     -1.49290086
C       2.78524151     -0.07659977     -1.50005926
H       5.22952126      1.19946289      1.08586199
H       5.30489518      1.36817787     -0.67499043
H       6.60335846      0.53655881      0.18551537
H       5.11980087     -1.10809383     -0.93505720
H       4.66660600     -2.54974353      1.05867442
H       5.04147675     -1.17181921      2.11655772
H       6.27968718     -1.82773996      1.04408866
H       2.79546366     -0.73812013      1.91864995
H       0.63130569     -0.50360386      2.87061442
H      -1.59173792      0.65762088      2.26823422
H      -1.70129803     -1.08541588      2.49615517
H      -1.65972361     -1.53416818      0.14861628
H      -5.16186404      0.75876381      1.03694401
H      -3.70467695      1.08300375      1.95884460
H      -3.91458515      1.76577324      0.34382106
H      -4.61758412     -2.27547043      2.69178115
H      -3.75854315     -1.54076956     -1.49671897
H      -4.99154544     -0.33576934     -1.20503313
H      -3.53398123      0.23765941     -3.10775317
H      -3.41479356      1.46573768     -1.86477027
H      -1.47192587     -0.83232828     -2.39690534
H      -1.19415299      0.86273602     -2.75574234
H      -0.50725970      2.09098203      0.64818042
H      -2.03818364      2.30398122     -0.18554018
H      -0.55033980      2.45592704     -1.07353773
H       0.36710316     -1.22563416     -1.03584243
H       1.51587863      1.60836209     -1.12157897
H       1.04557229      0.65091489     -2.52531387
H       3.48344457      0.60720114     -1.99619623
H       2.75666310     -0.99541348     -2.09884049
