40
CCCCCCCCOC(=O)c1ccc(O)c(Br)c1
C      -5.61864086     -0.94243409     -2.00495643
C      -4.69545174     -0.11951088     -1.11919393
C      -3.32552860      0.07418824     -1.77033845
C      -2.39567426      0.99146255     -0.97091355
C      -1.98827775      0.41168044      0.38627284
C      -0.96580711      1.31154623      1.08482895
C      -0.60595985      0.84030543      2.49829221
C       0.04171784     -0.54222591      2.56266830
O       1.16440802     -0.63291169      1.67333791
C       2.34392784     -0.17827886      2.16131358
O       2.53306137      0.28145156      3.27582560
C       3.41632392     -0.30700852      1.13746240
C       3.16924551     -0.80328497     -0.15179804
C       4.21032828     -0.90171943     -1.07830365
C       5.49424568     -0.50541215     -0.71930344
O       6.47036308     -0.62509920     -1.66769837
C       5.74966081     -0.00967030      0.56022812
Br      7.49477345      0.53317779      1.05769006
C       4.71453960      0.09120929      1.48995383
H      -5.78271726     -0.44806256     -2.96777038
H      -5.19760461     -1.93489575     -2.19497907
H      -6.59139871     -1.07290092     -1.52051569
H      -5.15789451      0.85524162     -0.92597750
H      -4.59086331     -0.62863452     -0.15526883
H      -3.46176431      0.51156653     -2.76731836
H      -2.84376372     -0.90019436     -1.91719727
H      -1.49332506      1.16805716     -1.56959257
H      -2.87579202      1.96724709     -0.82837137
H      -1.56649474     -0.58831682      0.23614809
H      -2.86889347      0.30428186      1.02896924
H      -0.05800415      1.38370230      0.47380828
H      -1.37266723      2.32791868      1.15828978
H       0.08658079      1.57675824      2.92358325
H      -1.50172266      0.84664994      3.13025532
H       0.33632472     -0.78651410      3.59052350
H      -0.67267960     -1.31382947      2.25785769
H       2.17144826     -1.11632343     -0.45065282
H       4.01970113     -1.28607578     -2.07712901
H       7.30411150     -0.31121143     -1.27188559
H       4.91016375      0.47807017      2.48830603
