19
c1ccc2c(c1)CCC2
C       2.44841769     -0.59080889      0.18220875
C       2.40016993      0.74536615     -0.24620707
C       1.17521297      1.37540137     -0.47649012
C       0.01467938      0.65253064     -0.25933604
C       0.06276434     -0.67913641      0.16763440
C       1.27239282     -1.31590079      0.38641810
C      -1.31513833     -1.25174886      0.28101719
C      -2.16620719      0.02571249      0.32415005
C      -1.39980039      1.09288519     -0.47073934
H       3.41147349     -1.06635021      0.35064104
H       3.32631450      1.29204572     -0.40552797
H       1.13914839      2.40460208     -0.81821288
H       1.31089817     -2.35184330      0.70683917
H      -1.54743578     -1.85252677     -0.60426705
H      -1.44748507     -1.85006304      1.18673140
H      -3.17901493     -0.13365392     -0.05883228
H      -2.26414731      0.35673663      1.36760249
H      -1.65227902      1.05100733     -1.53522287
H      -1.58996365      2.09574459     -0.07840697
