23
NS(=O)(=O)c1cc2c(cc1Cl)N=CNS2(=O)=O
N      -3.88121852      0.57549219     -0.63510289
S      -3.00112024      0.13849544      0.72358201
O      -3.58215176     -1.07276358      1.24765655
O      -2.91938442      1.34682816      1.51264825
C      -1.40017992     -0.21606864      0.07001546
C      -0.31870418      0.56397963      0.49864748
C       0.96169280      0.29485745      0.00134895
C       1.20414877     -0.73326743     -0.89963719
C       0.10812747     -1.49973968     -1.31531966
C      -1.18992974     -1.25249237     -0.84107794
Cl     -2.44212511     -2.27291717     -1.45114498
N       2.45936837     -1.09040536     -1.40919741
C       3.54459116     -0.54982341     -0.98237666
N       3.62335357      0.48438430     -0.05931572
S       2.29800024      1.29917687      0.49841751
O       2.37362523      1.25293583      1.94161767
O       2.20379903      2.54764557     -0.22219511
H      -4.62499153     -0.10433312     -0.80314134
H      -4.21485181      1.53581395     -0.54135343
H      -0.46139128      1.37933159      1.20754433
H       0.27922277     -2.31070863     -2.02248281
H       4.52707232     -0.90929307     -1.32929721
H       4.45304679      0.59287150      0.51711931
