49
COc1ccc(CCNC(=O)CNc2cccc(C(N)=O)c2)cc1OC
C      -4.16958805     -3.72127296     -0.29062727
O      -4.09642010     -2.40731529     -0.82412510
C      -3.61076132     -1.41595273     -0.00735347
C      -3.27776436     -1.59362019      1.33967510
C      -2.78742038     -0.52587293      2.09606511
C      -2.62190170      0.73509346      1.51699359
C      -2.05062655      1.88428451      2.31660781
C      -0.53850172      1.76610756      2.54166207
N       0.21681246      1.68011207      1.31152860
C       0.43167744      2.74969810      0.47448612
O       0.11058243      3.90246880      0.75256513
C       1.08009841      2.37806789     -0.86805233
N       1.40677437      0.93986568     -0.96017420
C       2.68614605      0.48818580     -0.61487234
C       3.52422619      1.15346296      0.28781657
C       4.75782916      0.61373201      0.66747381
C       5.16919464     -0.61864126      0.16485614
C       4.33786618     -1.31616008     -0.71479043
C       4.70951571     -2.64612180     -1.26655258
N       6.03877211     -2.96717897     -1.30139531
O       3.86973331     -3.41859511     -1.71043577
C       3.09611229     -0.77123428     -1.07607485
C      -2.96286350      0.91630694      0.16765774
C      -3.45986443     -0.14577584     -0.59725201
O      -3.80442417     -0.04869855     -1.92344570
C      -3.83424634      1.24896149     -2.49951176
H      -3.18279657     -4.07870258      0.02184829
H      -4.88911209     -3.77216920      0.53304104
H      -4.52675554     -4.38493655     -1.08402939
H      -3.38840611     -2.55335163      1.83278080
H      -2.53148315     -0.69034259      3.14046910
H      -2.56119644      1.92862192      3.28674407
H      -2.27991157      2.83212682      1.81379420
H      -0.29889351      0.87101715      3.12551189
H      -0.18630751      2.63974387      3.10134520
H       0.41140740      0.76816848      0.89783573
H       1.95447780      3.01250651     -1.04711140
H       0.33767827      2.60393429     -1.64224708
H       1.08770045      0.53396193     -1.83912715
H       3.23120882      2.10097020      0.73212354
H       5.38629482      1.15161712      1.37346180
H       6.11470736     -1.03373865      0.49941885
H       6.76138400     -2.26640193     -1.22595603
H       6.26931539     -3.81731670     -1.80054688
H       2.44313223     -1.34472202     -1.73243130
H      -2.81840527      1.89965901     -0.26870665
H      -4.21433656      1.15254312     -3.52114445
H      -2.82718831      1.67443063     -2.55967966
H      -4.51347206      1.91247352     -1.95387429
