6
[Na+].[O-][Cl+3]([O-])([O-])[O-]
Na      0.00000000      0.00000000      0.00000000
O       1.40134245     -0.16736685     -0.33276278
Cl     -0.00000004     -0.00000001     -0.00000000
O      -0.26440870      1.39575706      0.29060905
O      -0.81681744     -0.42351591     -1.12069031
O      -0.32011627     -0.80487429      1.16284404
