42
CC1CCCCN1CCCOC(=O)c1ccc(Cl)c(Cl)c1
C      -4.12675484     -2.10947217      0.52517951
C      -3.16172332     -1.76630799     -0.62062973
C      -3.91635161     -1.14655474     -1.81154836
C      -4.35899801      0.28647383     -1.53883073
C      -3.17351022      1.12485491     -1.08200789
C      -2.42644516      0.47077748      0.08143699
N      -2.01990785     -0.90504422     -0.24312262
C      -1.18182062     -1.50690393      0.80283985
C       0.20687118     -0.87243603      0.93831201
C       0.97674988     -0.83521094     -0.37846439
O       2.32497178     -0.38561890     -0.14728282
C       2.50292881      0.95714849     -0.11580511
O       1.63610244      1.80638898     -0.24298914
C       3.93730017      1.28617718      0.10863284
C       4.30331034      2.63788156      0.16928963
C       5.63663666      3.00028459      0.37892312
C       6.61582946      2.01498422      0.52995935
Cl      8.24358147      2.53195705      0.78676560
C       6.25629340      0.66318400      0.47019281
Cl      7.41340583     -0.60845420      0.64895340
C       4.92099961      0.29951314      0.26000370
H      -3.62402776     -2.67962255      1.31286182
H      -4.94854298     -2.73314757      0.15578093
H      -4.56938972     -1.21997570      0.98273059
H      -2.75260812     -2.71825037     -0.98574731
H      -3.25973358     -1.15250993     -2.69200611
H      -4.78821554     -1.75838444     -2.07198217
H      -5.14144921      0.30025549     -0.77138540
H      -4.79570854      0.72086337     -2.44504307
H      -3.51838052      2.12210064     -0.78590145
H      -2.48292487      1.26494559     -1.92369119
H      -1.54792733      1.09302278      0.28316709
H      -3.04618651      0.49723777      0.98577932
H      -1.68241526     -1.46756251      1.77825732
H      -1.02518512     -2.56881127      0.57192361
H       0.13485570      0.13589295      1.36135849
H       0.78722191     -1.44518379      1.67334808
H       0.48884836     -0.20650934     -1.13227530
H       1.05155333     -1.84372312     -0.79943654
H       3.54993098      3.41643046      0.05282195
H       5.90349404      4.05407018      0.42304419
H       4.65732133     -0.75476098      0.21549841
