16
ClCCN(Cl)CCCl
Cl     -2.59038286      1.30945985      1.45602114
C      -2.48452120     -0.19602681      0.50636238
C      -1.25796218     -0.20498573     -0.41446333
N       0.02854889     -0.20301263      0.30751374
Cl      0.30590356     -1.73682995      1.15891559
C       1.13440734      0.12553186     -0.61067399
C       2.42898669      0.45593923      0.13658816
Cl      3.70294703      0.93610830     -1.01733254
H      -3.39674051     -0.25724366     -0.09526958
H      -2.48866872     -1.03772383      1.20455419
H      -1.32619844      0.68183454     -1.05824977
H      -1.31364934     -1.07692606     -1.07903100
H       0.86154026      1.01022047     -1.20085363
H       1.30047431     -0.69500051     -1.32090620
H       2.28286974      1.29011756      0.82990574
H       2.81244543     -0.40146262      0.69625936
