30
CCOCCOCCOCCO
C       5.24277525      0.41077214      1.40975505
C       4.30497792     -0.22258048      0.40065236
O       3.21234867      0.66784010      0.18488799
C       2.27567779      0.18060212     -0.77594379
C       1.27340536     -0.79396298     -0.15302992
O       0.32070954     -1.24969388     -1.11440387
C      -0.80699427     -0.38631815     -1.26080772
C      -1.89895864     -0.71848650     -0.24509210
O      -3.01340817      0.15173060     -0.44723332
C      -4.07928021     -0.14404037      0.46557084
C      -5.22342410      0.82444602      0.18607427
O      -4.78123156      2.16475161      0.39465374
H       5.60560363      1.37757258      1.04537917
H       4.72150139      0.60119551      2.35375924
H       6.10140417     -0.23770492      1.60512483
H       4.83626601     -0.39182163     -0.54225836
H       3.94343367     -1.18057177      0.78663087
H       1.74206761      1.05157668     -1.17012228
H       2.78770813     -0.27231984     -1.63373597
H       1.80318098     -1.67974714      0.21154569
H       0.78505471     -0.35022909      0.72217756
H      -0.52047968      0.66995263     -1.20150405
H      -1.20584317     -0.53668250     -2.27046925
H      -2.20960865     -1.76305907     -0.36700597
H      -1.52037027     -0.60069735      0.77621546
H      -4.41516109     -1.17648372      0.32318847
H      -3.71446101     -0.00776601      1.48969884
H      -5.55807128      0.74467406     -0.85293077
H      -6.07018420      0.63231055      0.85056534
H      -3.93863852      2.23474080     -0.09478169
