16
CCOc1nsc(N)n1
C       3.00875183     -0.51143648      0.44741676
C       1.50177754     -0.50761558      0.26364166
O       1.06997853      0.84668973      0.18163037
C      -0.26654913      0.94409700      0.00811383
N      -0.71287722      2.19472414     -0.09353196
S      -2.36347151      2.08073269     -0.30750182
C      -2.35813635      0.35839958     -0.23651024
N      -3.46555772     -0.39860918     -0.33923233
N      -1.15242672     -0.12119633     -0.05645412
H       3.50057067     -0.00598780     -0.39032058
H       3.39055364     -1.53391500      0.51631197
H       3.28770107      0.03220455      1.35615757
H       1.03424487     -1.00720968      1.12107203
H       1.25108875     -1.04631834     -0.65852663
H      -4.35394174      0.02745986     -0.10256911
H      -3.37170650     -1.35201917     -0.00522549
