13
C=COCCCl
C       2.28675086      0.14198312      0.02995495
C       1.37023373      0.48784268     -0.88084835
O       0.01369319      0.34278416     -0.83788422
C      -0.54713902     -0.25224066      0.33547883
C      -2.06130649     -0.33111075      0.18465738
Cl     -2.81467096      1.27903119      0.34076759
H       2.03952091     -0.32563885      0.97457239
H       3.33807416      0.33241910     -0.16357133
H       1.64774315      0.95801669     -1.81917379
H      -0.28043557      0.32794144      1.22729891
H      -0.15721666     -1.27222480      0.43786507
H      -2.34310549     -0.72620185     -0.79557883
H      -2.49214182     -0.96260147      0.96646139
