22
Clc1ccccc1-c1cc(Cl)c(Cl)c(Cl)c1Cl
Cl     -0.45550134     -0.60478041      2.74342007
C      -1.38507092     -0.43094264      1.29373889
C      -2.76944822     -0.60590909      1.38412485
C      -3.56740170     -0.46993371      0.24912890
C      -2.98402815     -0.15830216     -0.97619675
C      -1.60123989      0.01721457     -1.06918024
C      -0.77662346     -0.11821153      0.06271388
C       0.67773977      0.07718857     -0.07569890
C       1.19717254      1.37274863      0.07874138
C       2.56799230      1.61889116     -0.02883364
Cl      3.08904012      3.25559228      0.18116609
C       3.45705585      0.56965140     -0.29715500
Cl      5.16073033      0.89265886     -0.43127589
C       2.95740666     -0.73604947     -0.45913455
Cl      4.04898430     -2.05069977     -0.80000506
C       1.57226833     -0.98010089     -0.34950947
Cl      0.93885534     -2.59005353     -0.55662227
H      -3.23170367     -0.84990526      2.33753121
H      -4.64353303     -0.60908059      0.32083805
H      -3.60537650     -0.05486399     -1.86303201
H      -1.16716780      0.25528577     -2.03896359
H       0.51984913      2.19960179      0.29420406
