15
CCC(C)S
C       1.97001384      0.13973216     -0.38860162
C       0.70382321     -0.00198093      0.44748175
C      -0.56319826     -0.26191402     -0.38078258
C      -1.75136581     -0.56973631      0.52758711
S      -0.99120357      1.16606647     -1.43953419
H       1.94606087      1.03497564     -1.01647695
H       2.84316940      0.22076995      0.26707253
H       2.11325984     -0.73289242     -1.03379150
H       0.85293925     -0.84375171      1.13592958
H       0.58032141      0.88984158      1.07479511
H      -0.39626883     -1.11998160     -1.04154428
H      -2.65460278     -0.78578392     -0.05404438
H      -1.96989584      0.26024343      1.20916254
H      -1.54306302     -1.45325798      1.14137743
H      -1.13998973      2.05766969     -0.44863055
