38
CCCCOCCOC(=O)COc1ccc(Cl)cc1Cl
C      -7.40368677     -0.44631158     -0.02135957
C      -5.93421916     -0.54024370     -0.40124650
C      -5.29179307      0.84555332     -0.49624143
C      -3.82499965      0.77390247     -0.91046322
O      -3.08298350      0.08846425      0.09677589
C      -1.70306673     -0.02349069     -0.24850684
C      -0.95646431     -0.70803545      0.89297380
O       0.40265398     -1.00905159      0.53639636
C       1.27721990      0.03914111      0.61210269
O       0.96759040      1.18175029      0.91582521
C       2.67370388     -0.45195778      0.25572710
O       3.60879414      0.61827425      0.27172941
C       4.91408838      0.33766992     -0.03482751
C       5.40063066     -0.93802382     -0.34197945
C       6.75483874     -1.12461722     -0.64163160
C       7.62796148     -0.03927469     -0.63557033
Cl      9.29022261     -0.28018154     -1.00570509
C       7.16368503      1.23551723     -0.33257826
C       5.81167239      1.42105640     -0.03351229
Cl      5.28247935      3.02626563      0.33520976
H      -7.84392131     -1.44649267      0.03997602
H      -7.96558995      0.12694534     -0.76565178
H      -7.52689809      0.03948610      0.95185453
H      -5.41183188     -1.14966743      0.34497030
H      -5.84435607     -1.05780671     -1.36338939
H      -5.36831732      1.33968461      0.47999515
H      -5.83929227      1.45725015     -1.22262212
H      -3.72517443      0.24925808     -1.86771289
H      -3.42942980      1.78989317     -1.02184927
H      -1.59712999     -0.61270217     -1.16712908
H      -1.28328351      0.97030934     -0.43948000
H      -0.99925461     -0.11229467      1.81343473
H      -1.44473581     -1.65964494      1.13252012
H       2.95373207     -1.20391664      1.00233895
H       2.62165883     -0.88400334     -0.75032813
H       4.75800675     -1.81250278     -0.35741256
H       7.12122167     -2.12101298     -0.87840661
H       7.84626797      2.08081074     -0.32822743
