35
CCCCCCCCCOC(C)=O
C      -5.59909613      1.44975876      0.81516784
C      -4.78286465      0.37668746      0.11246758
C      -3.28252862      0.60746287      0.29111923
C      -2.46504469     -0.47413761     -0.41714932
C      -0.96269400     -0.24284127     -0.23877509
C      -0.14767576     -1.32848575     -0.94506013
C       1.36353705     -1.08390736     -0.89558752
C       1.94548528     -1.16398512      0.51954573
C       3.46966507     -1.06628584      0.51991177
O       3.85703856      0.21829781      0.01578514
C       5.20275469      0.41135523     -0.04530089
C       5.49959865      1.77609912     -0.58667926
O       6.05364061     -0.40045445      0.28923990
H      -6.66871807      1.26528986      0.67448645
H      -5.39419530      1.45730351      1.89047954
H      -5.36993809      2.44234560      0.41442582
H      -5.03495900      0.37417685     -0.95437113
H      -5.05905215     -0.60543207      0.51354800
H      -3.01221795      1.59272818     -0.10794218
H      -3.03649850      0.61331059      1.35999862
H      -2.73465015     -1.45939379     -0.01762621
H      -2.71192985     -0.47962542     -1.48579841
H      -0.69253970      0.74067175     -0.64169646
H      -0.72713929     -0.23251684      0.83123955
H      -0.45111666     -1.37568880     -1.99836219
H      -0.37634621     -2.30767693     -0.50701440
H       1.85168327     -1.83809093     -1.52533995
H       1.58905263     -0.10743663     -1.34073966
H       1.54101936     -0.34522206      1.12506980
H       1.64780806     -2.10822732      0.98949988
H       3.83788804     -1.17651236      1.54655692
H       3.89965368     -1.85728727     -0.10584320
H       5.07654979      2.53700312      0.07392639
H       5.09092412      1.87148424     -1.59578168
H       6.58290590      1.91923287     -0.63461463
