34
CCCCOCCOCCCC
C      -5.59109523      0.89235803     -0.22063936
C      -4.29085389      0.10924905     -0.12798706
C      -3.48813018      0.20295778     -1.42761451
C      -2.19538661     -0.60536663     -1.36644442
O      -1.34320482     -0.05732006     -0.36256488
C      -0.11838187     -0.78294493     -0.26064417
C       0.75250281     -0.15498028      0.82205240
O       1.97485250     -0.88475555      0.92040227
C       2.85325284     -0.38218566      1.92274926
C       3.63423601      0.85578235      1.47808715
C       4.65756454      0.59610891      0.36745277
C       4.04683080      0.28904586     -0.99060692
H      -5.39749728      1.95290929     -0.41057233
H      -6.14977137      0.81155933      0.71705956
H      -6.22391971      0.50831767     -1.02709619
H      -3.70091204      0.49663000      0.71048051
H      -4.51851693     -0.94006213      0.09287011
H      -3.24782762      1.25553517     -1.62099561
H      -4.09693140     -0.15851592     -2.26442668
H      -2.41385099     -1.65470070     -1.13683071
H      -1.68928871     -0.55444002     -2.33723780
H       0.41155006     -0.76324563     -1.22058775
H      -0.32188657     -1.83141533     -0.01199770
H       0.94518063      0.89339302      0.57114256
H       0.22263606     -0.17742174      1.78172260
H       2.28879515     -0.16852147      2.83826440
H       3.55735672     -1.18551677      2.16592372
H       2.95227448      1.65041407      1.15781616
H       4.17831258      1.23898377      2.35024809
H       5.27990594      1.49362675      0.26463801
H       5.32975984     -0.21900253      0.65954943
H       3.57134677     -0.69511800     -1.00561553
H       3.30352366      1.04207101     -1.27026112
H       4.82757382      0.28349330     -1.75833625
