25
C=CCN(CC=C)CC=C
C      -2.81418476     -2.12720753     -0.63566872
C      -2.05106937     -1.40118810      0.19243059
C      -0.55538320     -1.28032847      0.09497813
N      -0.12400333      0.12901958      0.04755968
C       1.32324566      0.22697992      0.31298848
C       1.64028697     -0.01520355      1.76282643
C       2.52522056     -0.91588771      2.21101863
C      -0.44033217      0.71365762     -1.26876017
C      -0.35696786      2.21489240     -1.24493037
C       0.37462968      2.95264609     -2.09090625
H      -3.89053832     -2.16965000     -0.50038650
H      -2.38799073     -2.68839648     -1.46087070
H      -2.52214740     -0.85799714      1.00894676
H      -0.16283594     -1.84139272     -0.76342891
H      -0.16473651     -1.77228502      0.99388654
H       1.89013856     -0.44979417     -0.33998394
H       1.68556207      1.24021224      0.10150061
H       1.10621207      0.60591249      2.47884531
H       2.70452094     -1.03181284      3.27545688
H       3.08387878     -1.55389799      1.53395008
H      -1.47432808      0.48434320     -1.55324907
H       0.20067837      0.28886629     -2.05262932
H      -0.95074343      2.71435441     -0.48225285
H       0.38232660      4.03559037     -2.01457708
H       0.97856083      2.49856714     -2.86981641
