48
Cc1cc(C)c(O)c(C(c2cc(C)cc(C)c2O)C(C)C)c1
C       4.25218628     -0.50071921      2.40497273
C       3.40641418      0.06100001      1.29973023
C       3.77816167      1.24485654      0.65941140
C       3.01378110      1.75488261     -0.39493650
C       3.42424815      3.03234970     -1.07176032
C       1.86620687      1.05811227     -0.80795571
O       1.17255980      1.61868276     -1.85114695
C       1.46806336     -0.15063529     -0.19511585
C       0.21816355     -0.91249864     -0.67459233
C      -1.07959611     -0.16006620     -0.35044717
C      -1.33460915      0.29013521      0.95720049
C      -2.51294649      0.97352264      1.27617364
C      -2.77574868      1.41045421      2.68722600
C      -3.46301795      1.19689639      0.27467736
C      -3.23617611      0.78140323     -1.04567410
C      -4.27512160      1.07755397     -2.08955757
C      -2.03954849      0.10960561     -1.34167013
O      -1.74620260     -0.28070478     -2.62106078
C       0.14558024     -2.44748182     -0.34428991
C      -0.64364910     -3.20809092     -1.42385169
C      -0.44412386     -2.81235874      1.02455250
C       2.26836910     -0.63056130      0.85810671
H       4.76743501      0.29798314      2.94887787
H       3.63595490     -1.04134670      3.13108248
H       4.99886121     -1.18633189      1.99277906
H       4.67191697      1.77415091      0.98294672
H       4.33378567      3.44916703     -0.62641669
H       2.63417106      3.78404860     -0.97497633
H       3.62741399      2.85159382     -2.13224250
H       0.31216426      1.18009460     -1.95269370
H       0.35766294     -0.89717690     -1.76506994
H      -0.60157240      0.11095868      1.74202853
H      -1.84123234      1.66868265      3.19640826
H      -3.27104908      0.60707392      3.24108578
H      -3.41314551      2.30063466      2.70918231
H      -4.38716448      1.71420850      0.52738231
H      -3.84325036      1.68187052     -2.89381440
H      -5.11884498      1.63900748     -1.67438909
H      -4.67094133      0.14493985     -2.50418124
H      -2.52970668     -0.17158554     -3.18265518
H       1.16612314     -2.85126420     -0.38639931
H      -0.59843086     -4.28792256     -1.24382396
H      -1.69883296     -2.91739727     -1.43458097
H      -0.22579023     -3.02459142     -2.41921489
H      -1.52090880     -2.61715740      1.06712849
H       0.03194937     -2.27065718      1.84471116
H      -0.30512702     -3.88185423      1.22020518
H       2.02556437     -1.56346733      1.35664797
