25
CCC(CC)(CO)CO
C      -2.27383467      1.09437522      0.24392353
C      -0.83964760      1.09040608     -0.27495927
C      -0.03519924     -0.22317150     -0.04136372
C       1.34210083     -0.11296997     -0.77323734
C       2.29951716      0.94733834     -0.23944526
C      -0.78494114     -1.45143599     -0.62342549
O      -1.15049125     -1.25750092     -1.98633484
C       0.15882190     -0.46164490      1.47472735
O       1.00240801     -1.58408120      1.70620566
H      -2.73277967      2.06998393      0.05094489
H      -2.31529837      0.92062164      1.32253214
H      -2.88842587      0.34128879     -0.25681921
H      -0.31824761      1.92877910      0.20245621
H      -0.86675583      1.31977581     -1.34785161
H       1.17547806      0.09721393     -1.83730893
H       1.85773334     -1.08123501     -0.73500539
H       1.87309944      1.95159884     -0.30707671
H       2.58007061      0.75413314      0.79954918
H       3.22084325      0.94290009     -0.83179722
H      -1.70648839     -1.64884998     -0.06567652
H      -0.17881356     -2.36274218     -0.56143835
H      -0.34332346     -1.35992346     -2.51856112
H      -0.79701399     -0.66285897      1.96957301
H       0.60683608      0.41139917      1.96069744
H       1.11435196     -1.66340001      2.66969160
