26
CC(C=O)Cc1ccc2c(c1)OCO2
C      -3.56874965      1.22703526     -0.38276994
C      -2.25523673      0.47121234     -0.57233985
C      -2.51521032     -0.99450598     -0.86697139
O      -3.59256036     -1.55683740     -0.69599655
C      -1.37284348      0.60096738      0.67615794
C       0.03720480      0.09672557      0.46503439
C       0.44634519     -1.13175880      1.03276319
C       1.74224014     -1.61932314      0.83509027
C       2.60308411     -0.86219489      0.07183806
C       2.21585471      0.33424633     -0.48223457
C       0.94544935      0.84098094     -0.30551601
O       3.21204964      0.92190263     -1.19736197
C       4.27414283     -0.03933337     -1.02242838
O       3.89178634     -1.17851109     -0.22398647
H      -4.12279643      0.85601801      0.48670559
H      -3.38437368      2.29654615     -0.23732991
H      -4.21458080      1.11263480     -1.26025438
H      -1.74971179      0.88487476     -1.45341993
H      -1.64883899     -1.56052538     -1.25184530
H      -1.31002094      1.65271123      0.98539582
H      -1.83102937      0.06729003      1.51946284
H      -0.24759898     -1.71580424      1.63566108
H       2.06145569     -2.56045355      1.26870101
H       0.67041731      1.79096436     -0.75185751
H       5.12217024      0.45928206     -0.53890214
H       4.59135118     -0.39414400     -2.00980273
