36
Cc1cccc(N(O)C(=O)CCc2ccccc2)c1
C       5.83105810      1.79762247     -0.35007021
C       4.87944237      0.68169925     -0.03377464
C       5.34792021     -0.51566623      0.50884125
C       4.45185315     -1.52928218      0.83607296
C       3.07881795     -1.35296890      0.63261902
C       2.57402656     -0.15998321      0.10244940
N       1.18398853      0.04866623     -0.12404603
O       0.84905329      1.29529976     -0.70778159
C       0.11698933     -0.75279017      0.27724476
O       0.21522976     -1.84829772      0.83029811
C      -1.25595497     -0.17021374     -0.03911222
C      -2.38636362     -1.08774986      0.42374007
C      -3.73873387     -0.51286703      0.08062730
C      -4.36141903      0.39966592      0.94266997
C      -5.60274646      0.94722358      0.61531208
C      -6.23062636      0.59084706     -0.57671144
C      -5.61769071     -0.31265155     -1.44290049
C      -4.37612385     -0.86117589     -1.11758857
C       3.49742152      0.85255522     -0.22075090
H       5.93135466      2.46020575      0.51504757
H       5.47596305      2.38160694     -1.20566997
H       6.81982127      1.40678912     -0.61244217
H       6.41093908     -0.66603030      0.68278098
H       4.81764384     -2.46358773      1.25532619
H       2.42943580     -2.18070471      0.89990770
H       0.97092806      1.09109007     -1.65356055
H      -1.34538285      0.80340443      0.45783995
H      -1.32616117     -0.01517410     -1.12271666
H      -2.32614686     -1.25332455      1.50730698
H      -2.28478285     -2.08068896     -0.03325568
H      -3.88277348      0.68794954      1.87599071
H      -6.08004540      1.65170778      1.29136145
H      -7.19783763      1.01654536     -0.83003497
H      -6.10744132     -0.59141693     -2.37216510
H      -3.91045361     -1.56491670     -1.80371255
H       3.14879752      1.80661202     -0.61004095
