9
C=C(Br)C(F)(F)F
C      -1.36751874      0.45542369     -0.13011533
C      -0.04639361      0.49718186      0.11202364
Br      0.77073604      2.10098470      0.64319881
C       0.88651557     -0.67728234     -0.00799482
F       0.24066031     -1.81086620     -0.39543166
F       1.86632097     -0.46386406     -0.92419538
F       1.49871217     -0.96973932      1.16872661
H      -1.99617327      1.33478186     -0.02798476
H      -1.85285944     -0.46662019     -0.43822712
