42
CCOC(=O)c1ccccc1S(=O)(=O)NC(=O)Nc1nc(Cl)cc(OC)n1
C      -1.81394276      3.30602692      0.99435796
C      -2.24606548      2.85092522     -0.38640586
O      -2.71884179      1.49754848     -0.33029472
C      -1.78060199      0.53825074     -0.50907681
O      -0.59596902      0.69484020     -0.74995262
C      -2.42267660     -0.78431086     -0.37240206
C      -3.57040091     -1.05003102     -1.13713372
C      -4.17545181     -2.30705240     -1.08568697
C      -3.63873298     -3.30653527     -0.27624376
C      -2.50023065     -3.05083357      0.48930325
C      -1.88717835     -1.79073574      0.43796690
S      -0.50549669     -1.47252663      1.50137445
O      -0.31870384     -2.61757435      2.36719392
O      -0.70511591     -0.16117353      2.08436362
N       0.78307349     -1.37113768      0.47791740
C       1.19270356     -2.33915148     -0.42424277
O       0.64367143     -3.43136007     -0.50756708
N       2.22392095     -2.04451423     -1.25895785
C       2.98867611     -0.89587876     -1.32981029
N       3.94071856     -0.91205226     -2.26322517
C       4.69606480      0.19494816     -2.34340236
Cl      5.90800754      0.13407925     -3.55691191
C       4.55692450      1.30059563     -1.55239681
C       3.55039159      1.20648115     -0.63194664
O       3.38288462      2.29844505      0.19618661
C       2.29630469      2.16666533      1.10903591
N       2.75594401      0.12935255     -0.49855319
H      -1.49905772      4.35314632      0.97727449
H      -0.98444206      2.69731093      1.36620027
H      -2.63509363      3.19523408      1.71013336
H      -3.08064704      3.46829198     -0.73433958
H      -1.43550337      2.96327556     -1.11556893
H      -3.99293956     -0.28236549     -1.78250789
H      -5.06323979     -2.50914341     -1.68088897
H      -4.10752060     -4.28764429     -0.23768014
H      -2.09465742     -3.84082850      1.12008380
H       1.13764550     -0.42244660      0.34667931
H       2.48224991     -2.76986088     -1.90851789
H       5.18378022      2.17495358     -1.64002976
H       1.34540825      2.08081228      0.57493841
H       2.25731072      3.07663449      1.71535122
H       2.44682951      1.31933910      1.78662576
