29
CCOC(=O)c1ccnc(C(=O)OCC)c1
C       5.80474039     -0.39371551     -0.35898290
C       4.76638975      0.00890755      0.66984847
O       3.46902226     -0.15686675      0.08309652
C       2.44271704      0.17152567      0.90535930
O       2.54313857      0.57747564      2.05132284
C       1.13956820     -0.02893458      0.22088073
C       1.05032572     -0.49503034     -1.09234792
C      -0.20735195     -0.64986213     -1.64480549
N      -1.35128492     -0.37603106     -0.98650280
C      -1.24493468      0.07692838      0.29157318
C      -2.50223768      0.38639299      1.03891111
O      -2.52019302      0.79816873      2.18989424
O      -3.59256245      0.14717280      0.26613347
C      -4.84315101      0.41834125      0.90697430
C      -5.95589261      0.10541299     -0.07421574
C      -0.02734883      0.26363317      0.92946103
H       6.81569060     -0.28414630      0.04328190
H       5.71363623      0.22209693     -1.25986581
H       5.65771186     -1.43382961     -0.66827488
H       4.85577410     -0.62973629      1.55577902
H       4.91277144      1.05726973      0.95311023
H       1.92983916     -0.73482347     -1.68038955
H      -0.33297371     -1.00934561     -2.66303066
H      -4.89001626      1.47455814      1.19496412
H      -4.94697487     -0.21182420      1.79739047
H      -5.90982171     -0.94275478     -0.38780049
H      -5.85391987      0.71324962     -0.97933987
H      -6.93543143      0.29794719      0.37220981
H       0.01276966      0.62781985      1.95275867
