25
COC(=O)CNC(=O)c1ccccc1
C       4.70908126     -2.22476733     -0.66244485
O       3.92593245     -1.06328560     -0.94035508
C       2.68350022     -1.08554049     -0.38280881
O       2.23410106     -1.99070429      0.31247418
C       1.93003140      0.18937496     -0.72192815
N       0.55326694      0.09597473     -0.26423660
C      -0.33043818      1.12643249     -0.48426633
O      -0.02534013      2.13861519     -1.10522805
C      -1.69128808      0.97839766      0.10378100
C      -2.25694683     -0.27503633      0.37323188
C      -3.53845042     -0.35978103      0.92397576
C      -4.26048963      0.80123394      1.19993305
C      -3.70861546      2.05041625      0.91963946
C      -2.42897483      2.13965768      0.36883067
H       4.22173361     -3.12022736     -1.06070004
H       4.88081412     -2.32219698      0.41408832
H       5.67664647     -2.10771478     -1.15827209
H       1.92251434      0.34214548     -1.80532451
H       2.40504842      1.03830213     -0.22130446
H       0.34434720     -0.62919163      0.41337223
H      -1.72948377     -1.19490222      0.13854729
H      -3.97805785     -1.33283134      1.13001634
H      -5.25858459      0.73231661      1.62594473
H      -4.27443368      2.95553150      1.12588676
H      -2.00591407      3.11778077      0.14777985
