26
Nc1nc(N)nc(Nc2nc(N)nc(N)n2)n1
N      -2.99753547     -1.65696192     -1.83242210
C      -2.69633816     -0.52329954     -1.10128363
N      -3.66635478      0.34922633     -0.90004031
C      -3.31047525      1.41925895     -0.21446741
N      -4.28855463      2.35900308      0.04785944
N      -2.10024383      1.64984115      0.26684294
C      -1.18568748      0.72175386     -0.00263311
N       0.07994072      0.98708291      0.48414036
C       1.26705480      0.28294323      0.42003179
N       2.30431600      0.86998965      1.01150649
C       3.44119149      0.19479516      0.97812636
N       4.54227459      0.77387091      1.57884376
N       3.61572993     -0.97432684      0.39133819
C       2.53504869     -1.46826410     -0.18388916
N       2.64453757     -2.70176905     -0.79785285
N       1.34690205     -0.89333027     -0.18786904
N      -1.45014306     -0.38147043     -0.69001786
H      -3.78108584     -1.47760958     -2.44461347
H      -2.15368881     -2.01888033     -2.25674314
H      -5.20313704      1.93014157      0.00749299
H      -4.06169763      2.88498824      0.87992485
H       0.15044295      1.85762720      0.97881207
H       5.39278815      0.41162635      1.16967633
H       4.43934301      1.77809183      1.61629333
H       3.39982527     -3.23009667     -0.38396080
H       1.73554675     -3.14423168     -0.83061052
