36
C=CCCCCCCCCC(=O)OC
C      -6.26102170      0.98294440     -1.48932964
C      -5.61872149      0.69082177     -0.35147547
C      -4.63022430     -0.43041055     -0.20677513
C      -3.24274577      0.09634700      0.16507532
C      -2.23980064     -1.04784379      0.32711727
C      -0.85116695     -0.52282848      0.69935858
C       0.14970607     -1.66943542      0.85853174
C       1.52879094     -1.21131769      1.34160574
C       2.26758222     -0.33408248      0.32922354
C       3.67945854     -0.00160660      0.81139175
C       4.42305894      0.86790645     -0.17549757
O       3.98578581      1.26298625     -1.24658543
O       5.66567846      1.14506690      0.31381016
C       6.45761678      1.96524125     -0.54626158
H      -6.09668074      0.41546887     -2.40006073
H      -6.96926612      1.80473054     -1.53186008
H      -5.82065333      1.28724017      0.53611446
H      -4.99072157     -1.11166626      0.57323111
H      -4.56742008     -1.01302167     -1.13403171
H      -2.88858350      0.78687942     -0.61087285
H      -3.29995299      0.66746947      1.10044980
H      -2.17792582     -1.61769531     -0.60801432
H      -2.59266886     -1.73730174      1.10372489
H      -0.91237198      0.04466460      1.63573982
H      -0.51016035      0.16868013     -0.07906995
H      -0.24443448     -2.38966202      1.58632806
H       0.25267852     -2.20638013     -0.09230027
H       1.42575343     -0.67401913      2.29222443
H       2.13172218     -2.10446472      1.54783141
H       1.71614079      0.59841917      0.16283360
H       2.32010601     -0.84899604     -0.63804912
H       4.25142140     -0.92592481      0.94961944
H       3.62687085      0.53313464      1.76638501
H       5.97918291      2.93824560     -0.69567286
H       6.62730401      1.46422654     -1.50446093
H       7.42566280      2.12618367     -0.06383190
