40
CCCCCOC(=O)C(N)Cc1ccc(O)c(O)c1
C       5.72492448      1.10832565     -1.47103051
C       4.99219521     -0.06103013     -0.83175908
C       3.68691106      0.33890609     -0.13978253
C       2.61752879      0.84854384     -1.11149290
C       1.30501583      1.17867903     -0.40171092
O       0.76058472      0.02085156      0.24964790
C      -0.01623507     -0.78603013     -0.52667977
O      -0.22898131     -0.62199665     -1.72316781
C      -0.53893433     -1.98204791      0.28656206
N      -1.35541243     -2.87746804     -0.57956518
C      -1.30056288     -1.54747725      1.55276782
C      -2.53178317     -0.70017337      1.31391453
C      -3.77896453     -1.30523811      1.07819757
C      -4.91946120     -0.53102308      0.84288826
C      -4.80990091      0.85334925      0.84658808
O      -5.88722343      1.66525790      0.62225669
C      -3.58006726      1.46003191      1.08439228
O      -3.48110255      2.82229998      1.08843442
C      -2.44328634      0.69922849      1.31936737
H       5.15939667      1.52754739     -2.30818439
H       6.69330788      0.77691208     -1.85960835
H       5.90718055      1.90416241     -0.74203127
H       5.65318089     -0.51914008     -0.08624528
H       4.79311193     -0.82628339     -1.59096805
H       3.30546275     -0.53958054      0.39461334
H       3.89240498      1.10479823      0.61793523
H       2.96998072      1.75080807     -1.62220950
H       2.44121000      0.08312589     -1.87596412
H       1.47750986      1.93135057      0.37541482
H       0.57847278      1.60955849     -1.10096197
H       0.34168935     -2.56216697      0.58837807
H      -2.12647641     -2.31577218     -0.95287478
H      -0.79817142     -3.08812489     -1.41222867
H      -1.59488975     -2.43924232      2.12305931
H      -0.62330864     -0.99806351      2.22027298
H      -3.86386765     -2.39125271      1.07504511
H      -5.86862587     -1.02458466      0.66196211
H      -6.66315678      1.09885989      0.47003364
H      -4.39018610      3.13116172      0.90192498
H      -1.49947041      1.20293749      1.50834538
