19
O=C(O)COc1cc(Cl)cc(Cl)c1Cl
O       2.69534926     -1.25018433      0.82988410
C       2.76835259     -0.14398047      0.32057530
O       3.73673215      0.71591706      0.70447364
C       1.86175120      0.45202661     -0.74312793
O       0.88839175     -0.48013971     -1.22126240
C      -0.33293119     -0.29674844     -0.62384087
C      -0.65241431     -1.13098719      0.44949617
C      -1.89582991     -1.01336539      1.06305288
Cl     -2.28965200     -2.02530917      2.39670648
C      -2.82640224     -0.08323346      0.60493329
C      -2.51482974      0.73342917     -0.48738195
Cl     -3.72343206      1.85583724     -1.00814680
C      -1.26709652      0.62718380     -1.11763729
Cl     -0.86278149      1.60479495     -2.48986693
H       4.24725017      0.21584959      1.37683451
H       1.40748796      1.36738193     -0.34329981
H       2.48845491      0.72067747     -1.60014057
H       0.06713678     -1.86914250      0.79745933
H      -3.79553729     -0.00000714      1.09128886
