34
CCCC(=O)NCCNC(=O)CCC
C      -5.17009705      0.83903917     -0.72309786
C      -4.16603864     -0.15720688     -1.28602784
C      -2.72552286      0.33707755     -1.17587707
C      -2.17238308      0.28853587      0.23692925
O      -2.74691775     -0.23896982      1.18194443
N      -0.93178088      0.87542980      0.34425063
C      -0.20664872      0.91829637      1.60391188
C       0.36073510     -0.44492454      2.02136138
N       1.19746684     -1.05430199      1.00005345
C       2.45237511     -0.57274146      0.70304578
O       2.95606058      0.38303876      1.28115435
C       3.13982357     -1.36031569     -0.39767858
C       4.45414510     -0.73860059     -0.86424053
C       4.24136200      0.50643315     -1.71420065
H      -5.00972171      1.01226327      0.34509404
H      -5.09914689      1.80098816     -1.24087601
H      -6.18893102      0.46033848     -0.85290626
H      -4.40073792     -0.32319725     -2.34410582
H      -4.28325102     -1.12086760     -0.77713409
H      -2.08465654     -0.30419423     -1.79322820
H      -2.64499183      1.36092852     -1.55903130
H      -0.45388136      1.19890620     -0.48637953
H       0.59467974      1.65371875      1.48044782
H      -0.88575350      1.28465609      2.38170469
H       0.95736319     -0.32849934      2.93285450
H      -0.44502833     -1.15507506      2.23267388
H       0.79475809     -1.79351452      0.43940360
H       3.34510059     -2.36012502      0.00372927
H       2.45234917     -1.47260137     -1.24407819
H       5.08995386     -0.49097807     -0.00647476
H       4.99896191     -1.47708552     -1.46421203
H       3.63937485      0.27756353     -2.59948073
H       3.73595420      1.29673438     -1.15137155
H       5.20502519      0.89925090     -2.05378955
