54
CCCCCCCCCCNC(=O)NC1CCCCC1
C       8.27855901      1.43257059     -1.71651030
C       7.18981792      0.37186421     -1.75243796
C       6.16745118      0.58067724     -0.63559850
C       5.07284563     -0.48708950     -0.67645818
C       4.04796477     -0.27697766      0.44079114
C       2.95104998     -1.34299501      0.39291464
C       1.95900418     -1.25302681      1.55739972
C       1.09069037      0.00688230      1.51778830
C       0.09983567      0.10303910      2.68479573
C      -0.94344271     -1.01460278      2.74862961
N      -1.75597010     -1.10993255      1.55330986
C      -2.76607726     -0.21264927      1.31276849
O      -3.10352620      0.67444738      2.08281192
N      -3.34353912     -0.44577950      0.08861932
C      -4.49723074      0.32825853     -0.35034665
C      -5.78419913     -0.16523408      0.32644315
C      -7.01190700      0.58734407     -0.18039013
C      -7.12456107      0.52404802     -1.70042432
C      -5.84904952      1.01376669     -2.37894993
C      -4.62046673      0.26036680     -1.87673900
H       8.82106724      1.40589267     -0.76605875
H       7.85487357      2.43403380     -1.84276768
H       8.99854813      1.26420398     -2.52347360
H       7.64946904     -0.61866821     -1.65619015
H       6.68874276      0.40387544     -2.72695816
H       6.67407059      0.55041738      0.33677046
H       5.71486574      1.57500973     -0.73322021
H       4.56658924     -0.45746209     -1.64905585
H       5.52602987     -1.48099312     -0.57762349
H       4.55325957     -0.31226022      1.41345931
H       3.60834501      0.72113419      0.33800501
H       2.40900398     -1.27558297     -0.55818136
H       3.41797934     -2.33550932      0.42003295
H       1.31805078     -2.14055853      1.51231155
H       2.50215308     -1.30073665      2.50879366
H       0.55179590      0.05627391      0.56439968
H       1.73101876      0.89518666      1.55909825
H      -0.41142305      1.07111628      2.61556653
H       0.65821905      0.11454767      3.62885537
H      -1.60682785     -0.83846020      3.60339467
H      -0.46974015     -1.98923380      2.89868177
H      -1.31697931     -1.49094773      0.72874649
H      -3.31153209     -1.41127632     -0.20324092
H      -4.32730099      1.37292075     -0.05779465
H      -5.71246334     -0.04857563      1.41426980
H      -5.91319099     -1.23942336      0.13939185
H      -6.95348315      1.63545719      0.13798446
H      -7.91574302      0.16571923      0.27370050
H      -7.97515712      1.12958981     -2.03290983
H      -7.32774057     -0.50908998     -2.00826330
H      -5.93860905      0.89082837     -3.46410035
H      -5.72219021      2.08645428     -2.18823031
H      -3.71942278      0.67759940     -2.34290490
H      -4.67952711     -0.78710420     -2.20090573
