49
Cn1nnnc1SCC1=C(C(=O)O)N2C(=O)C(NC(=O)C(O)c3ccccc3)C2SC1
C      -8.05818642      0.30197194     -1.49812850
N      -7.74277229     -0.15616695     -0.17335163
N      -8.67324325     -0.76879597      0.58150495
N      -8.05151537     -1.08226501      1.71350895
N      -6.74166571     -0.66023003      1.69473511
C      -6.57001141     -0.08951964      0.52222317
S      -5.12412392      0.62139211     -0.09186800
C      -3.91827659     -0.02044900      1.10677903
C      -2.51268556      0.35818481      0.68563268
C      -1.67648459     -0.49297660      0.03978405
C      -2.13105414     -1.83803745     -0.41259355
O      -3.15163027     -2.09525722     -1.02635134
O      -1.28406541     -2.79623602      0.00547361
N      -0.40081532     -0.12980354     -0.24702717
C       0.57977412     -0.52920714     -1.07814219
O       0.70725380     -1.47236086     -1.82475393
C       1.41242646      0.75135283     -0.71702822
N       2.77999273      0.45181186     -0.19573049
C       3.44511955      1.31868328      0.64170593
O       2.88990908      2.31081694      1.11958624
C       4.91001042      0.97977315      1.01543434
O       5.64674543      2.18215563      1.24034007
C       5.64042467      0.14113930     -0.01224401
C       6.00600455      0.67940017     -1.25897500
C       6.61267391     -0.12218569     -2.22843762
C       6.87322725     -1.46690681     -1.95980527
C       6.52417783     -2.01225272     -0.72441773
C       5.90679342     -1.21585601      0.24329688
C       0.28946342      0.99593910      0.33860929
S      -0.75435996      2.45491705      0.08236924
C      -2.11862283      1.77444694      1.08124136
H      -7.78452213      1.35658655     -1.58441506
H      -9.13265886      0.19548857     -1.67855241
H      -7.49960073     -0.30552116     -2.21866442
H      -4.03231596     -1.10473633      1.20445097
H      -4.12907547      0.39933876      2.09728520
H      -1.63162337     -3.61782626     -0.39507471
H       1.46192088      1.46554194     -1.54790936
H       3.31924974     -0.27425616     -0.66318860
H       4.87172939      0.44682808      1.97492992
H       5.03215164      2.78467942      1.70239229
H       5.81694510      1.72907020     -1.47931520
H       6.88299469      0.29770321     -3.19616908
H       7.35080705     -2.08899530     -2.71488584
H       6.73416682     -3.05993042     -0.51451044
H       5.63794693     -1.66623336      1.19654975
H       0.58212626      0.81445143      1.38008422
H      -2.96199764      2.46128629      0.95540550
H      -1.83272793      1.79304609      2.13820445
