60
CCCCCCCCCCCC[N+](C)(C)CC(O)CS(=O)(=O)[O-]
C       5.89008130      2.11878342      0.65540932
C       5.95427681      0.80951442     -0.11577771
C       6.24324994      0.99273172     -1.60752209
C       5.21920817      1.82741177     -2.38362987
C       3.76983855      1.33574276     -2.30863296
C       3.58153529     -0.07692971     -2.86744213
C       2.11084247     -0.49446717     -2.96731485
C       1.43449811     -0.65554711     -1.60427250
C      -0.00513947     -1.15209586     -1.75549108
C      -0.68113669     -1.32084986     -0.39115658
C      -2.13480537     -1.76281104     -0.54557574
C      -2.81681355     -2.30767086      0.71459344
N      -3.05350273     -1.32912827      1.88441257
C      -4.06234113     -2.01826262      2.81905086
C      -1.78998225     -1.05889538      2.67400172
C      -3.67321536     -0.00214149      1.32799543
C      -4.17177308      0.98641423      2.41464957
O      -5.33347335      0.45986115      3.08281101
C      -4.46938483      2.38674267      1.86969289
S      -5.47597317      2.30538112      0.41586863
O      -4.53650048      1.79097638     -0.57764959
O      -5.91616632      3.67733028      0.22736527
O      -6.49927104      1.34538016      0.83282229
H       6.80437069      2.70358693      0.51333079
H       5.77928314      1.91846095      1.72616119
H       5.03658749      2.72778715      0.34234944
H       6.75093379      0.19145104      0.31563157
H       5.02125162      0.25365623      0.02787294
H       7.22697415      1.46548108     -1.72167648
H       6.33171870      0.00305381     -2.07104311
H       5.52884094      1.85941184     -3.43603808
H       5.25437679      2.86483331     -2.03012089
H       3.41861059      1.38665233     -1.27290055
H       3.14511073      2.03278384     -2.88136373
H       4.12010171     -0.80541540     -2.25074752
H       4.01970279     -0.12446770     -3.87200218
H       2.06276115     -1.44948181     -3.50508952
H       1.56022700      0.23648301     -3.57195863
H       1.42768169      0.30177275     -1.07155177
H       2.00511788     -1.36424024     -0.99218435
H      -0.57670330     -0.44034353     -2.36297545
H      -0.00944858     -2.11017027     -2.28835049
H      -0.63708334     -0.36078745      0.12948021
H      -0.12527689     -2.05497715      0.20330643
H      -2.72441575     -0.95418472     -0.99180979
H      -2.16358032     -2.57677618     -1.28297507
H      -3.80764900     -2.67841702      0.42190636
H      -2.25412177     -3.15863509      1.11722014
H      -4.12334258     -1.46808589      3.76063813
H      -5.03155757     -2.06972686      2.31476063
H      -3.69159143     -3.02731393      3.02737415
H      -2.05660125     -0.62236569      3.64088778
H      -1.16134465     -0.35473008      2.13091556
H      -1.26745450     -2.00605815      2.83495086
H      -4.49470740     -0.34255575      0.69107688
H      -2.87902804      0.46716264      0.74070152
H      -3.41000666      1.10087240      3.19146401
H      -6.09326545      0.62423475      2.46261597
H      -3.54940068      2.91691203      1.60391190
H      -5.02112350      2.97373773      2.61202326
