23
CCCC(C)(C)C
C       2.99957359      0.09405788      0.08791396
C       1.58705643      0.39758757     -0.39227008
C       0.54357595     -0.33419668      0.45903470
C      -0.93774174     -0.09872826      0.05996879
C      -1.82847759     -0.90974419      1.02174870
C      -1.31730646      1.38642318      0.18010247
C      -1.21014865     -0.57651255     -1.37589086
H       3.13803486      0.41220776      1.12615775
H       3.73148657      0.62377024     -0.52992645
H       3.21390184     -0.97756829      0.02449381
H       1.50498067      0.09694936     -1.44167521
H       1.42948804      1.47987690     -0.34544026
H       0.68065693     -0.03711671      1.50773052
H       0.75567528     -1.41131083      0.41842257
H      -1.67903011     -0.59426881      2.06054534
H      -2.89071894     -0.78020549      0.78517361
H      -1.60334794     -1.98056735      0.96164789
H      -1.09031187      1.77246695      1.18004721
H      -2.38880058      1.53445779      0.00239350
H      -0.78198611      2.00295910     -0.54923739
H      -2.27724855     -0.50897698     -1.61741086
H      -0.90509718     -1.62033703     -1.50938290
H      -0.67421444      0.02877644     -2.11414682
