23
OC1CC(O)C(O)C(O)C1O
O      -2.09616390      0.60319159     -0.67753743
C      -1.41366338      0.50876336      0.57980227
C      -0.29751589      1.54652131      0.64596153
C       0.81893876      1.24946580     -0.35461692
O       1.88026485      2.18494187     -0.14967520
C       1.36149110     -0.17419668     -0.18979870
O       2.35197639     -0.41282674     -1.20167981
C       0.24070735     -1.20711336     -0.30289798
O       0.79330582     -2.51319827     -0.06695740
C      -0.87086222     -0.92195696      0.71485327
O      -1.93085583     -1.86541588      0.49352368
H      -2.48820724      1.49527656     -0.72903047
H      -2.16257576      0.69374031      1.35781755
H      -0.69469057      2.54886697      0.44342686
H       0.11883187      1.58105124      1.66087503
H       0.46219588      1.40030693     -1.38064148
H       2.62314939      1.84791869     -0.69111277
H       1.88653352     -0.27522449      0.76821896
H       2.51775594     -1.37739171     -1.16555163
H      -0.15667456     -1.23602264     -1.32473429
H       0.01934935     -3.09643203      0.07356555
H      -0.49846850     -1.09571732      1.73108688
H      -2.46482239     -1.48454855     -0.23489751
