18
COc1ncc2nccnc2n1
C       3.38679690      0.42680222     -0.64881703
O       2.84298449     -0.69383799      0.03628966
C       1.46903140     -0.66049143      0.12352892
N       0.92760699     -1.70082037      0.76236780
C      -0.41676446     -1.68654408      0.85825944
C      -1.23195995     -0.70063735      0.35567876
N      -2.58617029     -0.73271067      0.47892799
C      -3.24422004      0.30740141     -0.06691928
C      -2.57481708      1.32883512     -0.70482412
N      -1.22669817      1.35066969     -0.82172778
C      -0.53604252      0.33421810     -0.29198050
N       0.78892238      0.35956187     -0.40910368
H       4.47490454      0.31086126     -0.66653725
H       3.16192156      1.36209964     -0.12427894
H       3.04087327      0.46501265     -1.68774326
H      -0.85004434     -2.53574681      1.37906136
H      -4.32446099      0.29741308      0.02244765
H      -3.10186369      2.16791367     -1.14546426
