18
O=[N+]([O-])c1ccc(CO)cc1
O      -3.52337642     -0.58789820     -1.92248842
N      -3.13877247     -0.31074083     -0.77738196
O      -3.88487691     -0.19357237      0.20530626
C      -1.69944498     -0.10809877     -0.57028734
C      -0.81777247     -0.23443714     -1.65100428
C       0.55089235     -0.04046493     -1.44847004
C       1.04446968      0.28730540     -0.17645943
C       2.52495316      0.46805393      0.03808932
O       3.15450840     -0.78327897      0.27140580
C       0.15153428      0.39746908      0.89991377
C      -1.21904530      0.20543342      0.70747197
H      -1.17613886     -0.48296529     -2.64807660
H       1.23497023     -0.14658122     -2.28962883
H       2.98859755      0.93670654     -0.83635660
H       2.71752324      1.11976717      0.89681417
H       2.46355921     -1.46316335      0.34465324
H       0.52063909      0.63487484      1.89681169
H      -1.89221978      0.30159069      1.55718557
