18
O=C(O)c1c(Br)c(O)c(O)c(O)c1Br
O       3.28870354     -0.06498299      0.96494647
C       2.54489102     -0.26896262      0.02783109
O       2.97190125     -0.60101827     -1.20109994
C       1.08426916     -0.16983255      0.04243288
C       0.47518287      1.07743420     -0.17874306
Br      1.48451600      2.65423714     -0.52205350
C      -0.91760027      1.16926304     -0.15194156
O      -1.59817707      2.34134702     -0.35841450
C      -1.68391501      0.03610956      0.09392324
O      -3.05157230      0.11707495      0.12176282
C      -1.08222185     -1.19838527      0.31805585
O      -1.88993597     -2.27731494      0.55757858
C       0.30927122     -1.31490593      0.29735167
Br      1.11073566     -3.01231592      0.61908379
H       3.94740989     -0.65940748     -1.11744252
H      -0.93616956      3.04410767     -0.50950305
H      -3.25161174      1.06042939     -0.05527463
H      -2.80567684     -1.93287700      0.52082099
