38
CC(C)OC(=O)CCCCC(=O)OC(C)C
C      -5.91063358      0.91587944      1.09674625
C      -5.50769544      0.47658591     -0.30635673
C      -6.52675046     -0.50120891     -0.87869208
O      -4.24376036     -0.21105155     -0.25192109
C      -3.13055683      0.57575779     -0.27015879
O      -3.12837444      1.79668177     -0.32939822
C      -1.90082628     -0.29959580     -0.20469370
C      -0.61441408      0.52476800     -0.21555073
C       0.62209366     -0.37090555     -0.14808574
C       1.90850647      0.45345644     -0.15900536
C       3.13819973     -0.42181046     -0.09170823
O       3.13614271     -1.64300321     -0.03828950
O       4.25117312      0.36550088     -0.09913050
C       5.51494146     -0.32176413     -0.03670698
C       6.55910125      0.60114907     -0.65321772
C       5.85755486     -0.62918288      1.41661566
H      -6.89240478      1.39925878      1.09371176
H      -5.94174343      0.06061898      1.78084703
H      -5.18171054      1.62062116      1.50981828
H      -5.44472523      1.34319881     -0.97569102
H      -7.51900333     -0.04555838     -0.95068338
H      -6.21991364     -0.82860793     -1.87802521
H      -6.59757385     -1.40321414     -0.26066673
H      -1.95227656     -0.89288167      0.71509133
H      -1.91543336     -0.97461551     -1.06766576
H      -0.61422813      1.21948394      0.63374194
H      -0.57703726      1.13836357     -1.12440734
H       0.62184877     -1.06566570     -0.99733549
H       0.58477470     -0.98445292      0.76081212
H       1.92231235      1.12902737      0.70357978
H       1.96077098      1.04615964     -1.07909081
H       5.47854410     -1.24645758     -0.62544122
H       6.29527590      0.83452339     -1.69049212
H       6.60557492      1.55637472     -0.11845733
H       7.55261968      0.14273922     -0.64107092
H       5.11051174     -1.29430960      1.86175734
H       5.86147134      0.28550525      2.01974294
H       6.83764387     -1.10886916      1.49947826
