68
C[C@H](CCC(=O)O)[C@H]1CC[C@H]2[C@@H]3CC[C@@H]4C[C@H](O)CC[C@]4(C)[C@H]3C[C@H](O)[C@@]21C
C       3.97583445     -1.45358032      1.05161500
C       3.99233872     -0.55303450     -0.18521774
C       5.27008071      0.33174185     -0.20086028
C       5.38420068      1.40774910      0.88154218
C       5.77790875      0.88488964      2.23483310
O       5.17452715      1.06043087      3.28017126
O       6.94292692      0.21016581      2.22603550
C       2.68102479      0.26287241     -0.35601932
C       2.70948778      1.15646238     -1.62951908
C       1.26016325      1.30673365     -2.10853524
C       0.43562393      0.67475949     -0.99579244
C      -1.01120948      0.26679793     -1.31042104
C      -1.81965570      1.45748912     -1.83549241
C      -3.25723644      1.05721507     -2.12378565
C      -3.98250212      0.45577601     -0.91324182
C      -4.39971895      1.53244913      0.09838406
C      -5.39539590      0.96681258      1.11849190
O      -5.24526050      1.66305745      2.35353435
C      -5.24474758     -0.54079139      1.34657648
C      -3.78928422     -0.98233284      1.20943281
C      -3.17997714     -0.69262003     -0.20450542
C      -3.32920577     -1.96935490     -1.06784322
C      -1.66380829     -0.30031725     -0.01946067
C      -0.79596243     -1.43027976      0.60189958
C       0.68011901     -1.03327957      0.81136228
O       0.74138068     -0.04454857      1.83775471
C       1.32017298     -0.49908707     -0.49188599
C       1.44210681     -1.65644296     -1.51666627
H       3.32413048     -2.31708187      0.89777336
H       4.97231177     -1.85760733      1.26026824
H       3.62812895     -0.91818259      1.93977196
H       4.09354045     -1.21722868     -1.05387729
H       6.14820127     -0.32558353     -0.16368314
H       5.33217196      0.83337549     -1.17453953
H       6.15599530      2.13177710      0.59173127
H       4.45734141      1.97897035      0.98317129
H       7.08120220     -0.02863167      3.16627563
H       2.59706500      0.93838412      0.50534868
H       3.14418051      2.13527145     -1.39824793
H       3.31087051      0.71093783     -2.42998368
H       1.11472244      0.78840383     -3.06297352
H       1.00290006      2.35979887     -2.26284988
H       0.37867028      1.43644234     -0.20047001
H      -1.00848583     -0.50220300     -2.09097522
H      -1.37311451      1.83829633     -2.76149301
H      -1.79828633      2.28326887     -1.11363292
H      -3.80866211      1.92882711     -2.49678917
H      -3.26185360      0.32706672     -2.94316700
H      -4.91763531      0.03695819     -1.31471833
H      -4.87306459      2.38018707     -0.41308691
H      -3.52154770      1.95194841      0.60384461
H      -6.41874733      1.16178040      0.77814336
H      -4.33729467      1.52117525      2.67140297
H      -5.85138008     -1.08688240      0.61436014
H      -5.61567231     -0.81344588      2.34153530
H      -3.21518776     -0.46077382      1.98611253
H      -3.71317396     -2.04987048      1.44925022
H      -2.87875918     -2.84440836     -0.58952381
H      -4.38613089     -2.21229379     -1.22717551
H      -2.86785306     -1.85529723     -2.05275790
H      -1.64832659      0.52288921      0.71135479
H      -0.83239996     -2.32463547     -0.02714439
H      -1.21631348     -1.71212447      1.57413992
H       1.22304143     -1.90853818      1.17834976
H       0.46755098     -0.46658753      2.67028651
H       0.47323444     -2.07303288     -1.80365850
H       2.02715519     -2.48363715     -1.10053154
H       1.93754254     -1.34744598     -2.44241904
