17
CCCCC(=O)O
C       2.11478606      1.04517209      0.60664047
C       0.67886631      0.55951074      0.72955644
C       0.42248381     -0.65758184     -0.16203979
C      -0.99794648     -1.19584367     -0.01920174
C      -2.02884514     -0.25558608     -0.57632386
O      -2.85794231      0.36711564      0.06536625
O      -1.97387882     -0.14996126     -1.91690161
H       2.27724816      1.91455405      1.25139982
H       2.82047515      0.26374261      0.90612256
H       2.34274414      1.33843931     -0.42309998
H       0.00310945      1.37798879      0.45710883
H       0.47478734      0.30408716      1.77586685
H       0.62475844     -0.39553073     -1.20758656
H       1.12514518     -1.45500197      0.10906129
H      -1.23587976     -1.38824427      1.03319304
H      -1.09798930     -2.15348451     -0.54308130
H      -2.69192222      0.48062395     -2.13489187
