33
Cc1cc2ccccc2c2ccc3ccccc3c12
C       0.69951440      2.85088477      0.53473735
C      -0.12537527      1.61714736      0.26099945
C      -1.50419551      1.87090545      0.11848766
C      -2.43056627      0.85560264     -0.06814720
C      -3.79306445      1.18488383     -0.20192403
C      -4.75816976      0.20003183     -0.37638718
C      -4.36693532     -1.12588877     -0.41789109
C      -3.01303921     -1.45538050     -0.28510104
C      -1.98951729     -0.47916386     -0.10481530
C      -0.57439595     -0.75979121      0.03165317
C      -0.12674186     -2.09471989      0.03805217
C       1.21044797     -2.44869401      0.15222580
C       2.19242846     -1.47809550      0.22864028
C       3.52964655     -1.91079208      0.30518235
C       4.57854650     -1.00458895      0.34652297
C       4.29214464      0.34424744      0.29662595
C       2.95878749      0.77412354      0.22633561
C       1.83619327     -0.10379091      0.21551801
C       0.40666055      0.28225430      0.16959958
H       1.26959312      3.13478117     -0.35440298
H       0.07113493      3.71268904      0.79024311
H       1.34548193      2.70070380      1.40473296
H      -1.85974826      2.90014146      0.16858042
H      -4.11383887      2.22437130     -0.16884391
H      -5.80535248      0.46940640     -0.47834757
H      -5.10597879     -1.91075191     -0.55499163
H      -2.77585512     -2.51368550     -0.33458944
H      -0.82186678     -2.92537212     -0.03614832
H       1.46626537     -3.50636972      0.15858901
H       3.76602826     -2.97327111      0.32476041
H       5.60592434     -1.35148475      0.40096538
H       5.09677080      1.07496375      0.30376547
H       2.83907258      1.84470270      0.14999760
