70
CC(C)(C)NC(=O)C1N(C(=O)C(O)C(Cc2ccccc2)NC(=O)c2ccccc2)CSC1(C)C
C       3.07518848      2.92773336      0.70475875
C       4.08646364      1.77013321      0.69645939
C       5.19631401      2.04096638     -0.33154592
C       4.73821411      1.67941418      2.08864539
N       3.41431956      0.48622827      0.43534868
C       2.73018673      0.19261369     -0.73541523
O       2.68470258      0.94751740     -1.70178953
C       2.05631401     -1.20459066     -0.72104004
N       0.74650001     -1.12518824     -1.36882039
C      -0.32550092     -0.59562915     -0.67781808
O      -0.19936987     -0.21358146      0.49100431
C      -1.67388229     -0.50333836     -1.42320850
O      -1.58799176      0.49193671     -2.45075067
C      -2.86092367     -0.16756287     -0.48568994
C      -3.13602768     -1.22822432      0.60438016
C      -3.23800443     -2.64074524      0.08541305
C      -4.34052911     -3.03750306     -0.68318594
C      -4.41867541     -4.33719242     -1.18373373
C      -3.39921820     -5.25065948     -0.92012127
C      -2.30052084     -4.86694431     -0.15235020
C      -2.22040044     -3.56824584      0.35031212
N      -2.67310032      1.15739820      0.13193715
C      -3.74504805      1.93379134      0.52098736
O      -4.89884052      1.67878760      0.19191150
C      -3.44838460      3.13650020      1.35353280
C      -2.29571649      3.25299121      2.14233118
C      -2.07507938      4.41115484      2.89330795
C      -3.00433753      5.45056145      2.86932841
C      -4.16081585      5.33460231      2.10185409
C      -4.38384589      4.18129903      1.34852505
C       0.79128914     -1.29633490     -2.80905408
S       2.30467645     -2.21971137     -3.18638206
C       2.87056972     -2.29858015     -1.44433412
C       4.38888610     -2.12722339     -1.38118547
C       2.48562696     -3.68519139     -0.89844167
H       2.25887059      2.72880410      1.40780256
H       3.55404542      3.86835239      0.99869211
H       2.62527435      3.08387237     -0.28156656
H       5.76839123      2.93478282     -0.06170225
H       5.89564214      1.19839450     -0.38778293
H       4.79885903      2.20362967     -1.33684954
H       3.98685816      1.48548683      2.86341590
H       5.46662761      0.85924628      2.13120630
H       5.25624394      2.60719537      2.35188875
H       3.10248452     -0.01403190      1.25974931
H       1.90255759     -1.48691650      0.32829328
H      -1.86388590     -1.45882667     -1.92076645
H      -1.73669712      1.35166757     -2.01074907
H      -3.75349033     -0.08756880     -1.12064266
H      -4.07449625     -0.98437203      1.12061565
H      -2.37167472     -1.17609463      1.38907171
H      -5.14671003     -2.33658289     -0.89435713
H      -5.27738099     -4.63860758     -1.77868137
H      -3.46566164     -6.26369049     -1.30723405
H      -1.50904772     -5.58145238      0.05845824
H      -1.35928113     -3.28770509      0.95442230
H      -1.76242607      1.31803931      0.54753126
H      -1.56514281      2.45319198      2.21228146
H      -1.17937745      4.50060832      3.50324047
H      -2.82907102      6.34946574      3.45298286
H      -4.89121715      6.13986739      2.08669754
H      -5.29034090      4.09855199      0.75179594
H      -0.08236753     -1.85089860     -3.16020448
H       0.82039804     -0.31617913     -3.29317804
H       4.72725888     -1.20166900     -1.86125657
H       4.73325874     -2.10676868     -0.34075080
H       4.90626600     -2.95845299     -1.87538945
H       1.40382510     -3.86100251     -0.93455283
H       2.79281137     -3.78521915      0.14835740
H       2.97555780     -4.49230037     -1.45600936
