16
CNCCC(=O)O
C      -2.63342265     -0.19909154     -0.16708393
N      -1.31716977      0.09359343     -0.72134386
C      -0.27494283     -0.05803844      0.30075524
C       1.09081817      0.28807097     -0.28533809
C       2.16574412      0.14448072      0.75416738
O       2.04477301     -0.25880498      1.89807556
O       3.37453223      0.51232857      0.28372846
H      -2.69396622     -1.22832590      0.20131555
H      -3.39208438     -0.07479143     -0.94597979
H      -2.88203534      0.48903521      0.64729917
H      -1.13361183     -0.54486307     -1.49554761
H      -0.26662240     -1.08753321      0.68023804
H      -0.48473926      0.60563144      1.14890943
H       1.09423509      1.32371210     -0.64404692
H       1.32864336     -0.38197748     -1.11920987
H       3.97984869      0.37657361      1.04264330
