28
[Br-].[Br-].c1cc[n+]2c(c1)-c1cccc[n+]1CC2
Br      0.00000000      0.00000000      0.00000000
Br      0.00000000      0.00000000      0.00000000
C       2.79881522      1.79513071     -0.00511687
C       3.47524949      0.61692476     -0.26677293
C       2.75802059     -0.56098029     -0.40684591
N       1.40475663     -0.57780966     -0.28488241
C       0.70160317      0.57247731     -0.05248874
C       1.41319825      1.77601023      0.10036383
C      -0.77194415      0.47556951      0.02578647
C      -1.63737322      1.56396807     -0.18550686
C      -3.01348530      1.40318846     -0.07643795
C      -3.52739764      0.16000694      0.24696395
C      -2.65976115     -0.90291891      0.44418942
N      -1.31596598     -0.74503612      0.31862330
C      -0.44565712     -1.92194941      0.54386141
C       0.70019061     -1.87029952     -0.44718777
H       3.35026987      2.72957252      0.11181258
H       4.56099824      0.61842044     -0.36237611
H       3.26766108     -1.49925471     -0.62012016
H       0.90779116      2.71831689      0.31142657
H      -1.26163159      2.55340171     -0.44581466
H      -3.68440013      2.24846190     -0.23876132
H      -4.60394005      0.02133184      0.34605339
H      -3.04025171     -1.88881112      0.70653488
H      -1.03067828     -2.83607329      0.40544200
H      -0.10157154     -1.85606582      1.58195618
H       0.35392315     -1.90367939     -1.48611587
H       1.40158042     -2.68990303     -0.26458640
