30
COC(=O)c1ccc2cc(C(=O)OC)ccc2c1
C      -6.15315663     -0.55460516     -0.24266379
O      -4.79542514     -0.17860484     -0.47802025
C      -3.90903549     -0.75750661      0.36989830
O      -4.18498424     -1.53525198      1.26981149
C      -2.52068214     -0.31772107      0.06203894
C      -2.22762287      0.57474199     -0.97446484
C      -0.90512417      0.95482005     -1.22052108
C       0.14490033      0.45113370     -0.43728206
C       1.47739912      0.82566297     -0.67496229
C       2.52068325      0.31771468      0.11235960
C       3.90903658      0.75750400     -0.19549501
O       4.18498756      1.53524386     -1.09541207
O       4.79542281      0.17861333      0.65243450
C       6.15315454      0.55461821      0.41708660
C       2.22762319     -0.57474740      1.14886357
C       0.90512492     -0.95482770      1.39491759
C      -0.14489865     -0.45114301      0.61167726
C      -1.47739713     -0.82567228      0.84935811
H      -6.28147323     -1.63305430     -0.37862831
H      -6.46725919     -0.24922685      0.76037603
H      -6.77951969     -0.03661428     -0.97416239
H      -3.01610611      0.98461200     -1.60105522
H      -0.70136880      1.65064356     -2.03268177
H       1.70938672      1.52058385     -1.48142308
H       6.28146066      1.63307243      0.55301458
H       6.77951061      0.03665830      1.14861140
H       6.46727363      0.24920930     -0.58593735
H       3.01610504     -0.98461380      1.77545681
H       0.70136898     -1.65064938      2.20707902
H      -1.70938445     -1.52059359      1.65581843
