10
O=C1CSC(=S)N1
O      -1.44563513      1.61914234      0.39427320
C      -0.68644411      0.68515127      0.17393249
C      -1.11982157     -0.74598456     -0.01210634
S       0.40565884     -1.68459054     -0.30592907
C       1.42033274     -0.27423582     -0.17837628
S       3.06788519     -0.23731868     -0.32893095
N       0.66723118      0.82723653      0.06797222
H      -1.78283699     -0.82346212     -0.87680471
H      -1.61478538     -1.10445778      0.89332342
H       1.08841523      1.73851934      0.17264602
