33
O=C(O)c1cc(O)c(O)c(OC(=O)c2cc(O)c(O)c(O)c2)c1
O       3.96562796      1.83486312      2.65700492
C       4.47391004      1.01301591      1.91708037
O       5.79284718      0.75977884      1.95134564
C       3.75513460      0.20047225      0.90805949
C       4.41537634     -0.72328057      0.09330773
C       3.67836747     -1.45691993     -0.82750818
O       4.33055427     -2.36783450     -1.61297911
C       2.29861234     -1.28633961     -0.96977997
O       1.70394252     -2.07541135     -1.91463196
C       1.64042450     -0.36714959     -0.15552818
O       0.24392273     -0.14209339     -0.10014391
C      -0.60707490     -0.22708412     -1.18617037
O      -0.28777497     -0.54022241     -2.32438079
C      -1.99905631      0.11424940     -0.79022510
C      -2.98255597      0.12119926     -1.79854563
C      -4.29799605      0.43454340     -1.47243214
O      -5.29305046      0.45742139     -2.40860186
C      -4.63823409      0.73805667     -0.16008403
O      -5.92837881      1.04770609      0.17238116
C      -3.66900765      0.73047397      0.83384173
O      -4.00764817      1.02832734      2.12143316
C      -2.34840516      0.42098001      0.53421911
C       2.36725020      0.37084535      0.78819694
H       6.13424131      1.35528513      2.65080679
H       5.48714665     -0.88215690      0.16914454
H       3.62357218     -2.77888717     -2.15157774
H       0.92580232     -1.58866745     -2.26334545
H      -2.70819153     -0.11675033     -2.82322715
H      -4.91307703      0.22748461     -3.27531794
H      -6.41971151      0.98956684     -0.67315596
H      -4.96957183      1.20972054      2.09331333
H      -1.61699973      0.42290460      1.33744734
H       1.85000157      1.07590258      1.43676384
