27
ClC1=C(Cl)[C@]2(Cl)[C@H]3[C@H]([C@@H]4C[C@H]3[C@H]3O[C@@H]43)[C@@]1(Cl)C2(Cl)Cl
Cl     -1.38535583     -1.95601307      2.57589700
C      -1.35311440     -0.98191722      1.18734311
C      -1.52354264     -1.36994543     -0.08371571
Cl     -1.81807839     -2.94123040     -0.65142622
C      -1.53732650     -0.12826216     -0.94722852
Cl     -2.25276205     -0.28963240     -2.54067989
C      -0.13451668      0.55382074     -0.98246946
C       0.06611968      1.01069014      0.51398553
C       1.51112517      0.54495016      0.82777025
C       2.15119546      0.87853403     -0.55665016
C       1.22231715     -0.11271064     -1.32621010
C       1.44971727     -1.39814550     -0.55358414
O       2.71300609     -1.54496021      0.10797143
C       1.63943675     -0.96613896      0.86131243
C      -1.24954027      0.52698284      1.19912900
Cl     -1.54538967      1.32093364      2.73506240
C      -2.30414553      0.81711057      0.05947079
Cl     -2.42511439      2.54274285     -0.45112453
Cl     -4.00196596      0.31380621      0.44077109
H      -0.19814966      1.45419838     -1.61220775
H       0.09015294      2.11074632      0.53830609
H       1.97754175      1.05088751      1.67502775
H       2.02807852      1.92472231     -0.85956359
H       3.21393735      0.62106189     -0.62053026
H       1.43190849     -0.19164170     -2.39448054
H       0.94343540     -2.29105323     -0.86725026
H       1.29102996     -1.49953669      1.72507427
