15
O=C(O)c1cc(Cl)c(Cl)cc1Cl
O       2.90454196     -0.33819764      0.96211891
C       2.12421257      0.23634994      0.23158128
O       2.52961312      1.21553885     -0.59796746
C       0.66858718      0.00271933      0.10558362
C      -0.17599019      1.10693119     -0.10033962
C      -1.55923980      0.93254124     -0.19560862
Cl     -2.53083834      2.33807208     -0.44569462
C      -2.10809491     -0.34873187     -0.08439918
Cl     -3.80690521     -0.64084939     -0.19201225
C      -1.27096203     -1.44962144      0.11828761
C       0.11545578     -1.27887176      0.21383294
Cl      1.06552310     -2.70659447      0.41408278
H       3.49799776      1.27015514     -0.44675113
H       0.24641046      2.10735852     -0.17998373
H      -1.70031146     -2.44679973      0.19726947
