23
CC(C)CC(C)C
C      -1.76118238     -0.35703793      1.15744438
C      -1.22725361     -0.37597465     -0.27512499
C      -2.33189060      0.05964881     -1.24283160
C       0.00770030      0.52942416     -0.45654748
C       1.22464309      0.19641011      0.42997626
C       2.35020182      1.19903685      0.15739047
C       1.73814494     -1.22654906      0.20817269
H      -1.98718673      0.66383191      1.48340427
H      -2.68016701     -0.94789594      1.23715450
H      -1.03927779     -0.78763132      1.85775238
H      -0.95998950     -1.40787361     -0.53095994
H      -2.66028987      1.08420879     -1.03716567
H      -1.98042527      0.01712471     -2.27920007
H      -3.20350094     -0.59836728     -1.16010543
H       0.31762500      0.48931849     -1.50972418
H      -0.28766906      1.57030917     -0.26639351
H       0.94391401      0.30233472      1.48433310
H       2.69265077      1.14063131     -0.88144779
H       3.20943553      1.00603240      0.80854345
H       2.01302421      2.22363858      0.34685810
H       1.97642473     -1.40276270     -0.84618709
H       2.64590851     -1.40749585      0.79402501
H       0.99915985     -1.97036169      0.52063315
