16
O=C([O-])c1ccccc1O.[Na+]
O      -2.27999238     -2.11977208     -0.45132018
C      -2.08899718     -0.88818102     -0.21080514
O      -2.99412869     -0.00056549     -0.05742802
C      -0.66613616     -0.39831476     -0.08935495
C       0.41337151     -1.28593470     -0.23939560
C       1.73347726     -0.83975204     -0.12831534
C       1.99588845      0.50387376      0.13511241
C       0.93905153      1.40016459      0.28725526
C      -0.37511643      0.94868666      0.17527027
O      -1.36698013      1.88317275      0.33600206
Na      0.00000000      0.00000000      0.00000000
H       0.20954606     -2.33582637     -0.44521146
H       2.55005683     -1.54496683     -0.24831000
H       3.01954448      0.85317950      0.22188578
H       1.12878018      2.44848180      0.49249832
H      -2.21836532      1.37575423      0.22211658
