33
CCOP(=S)(OCC)N1C(=O)c2ccccc2C1=O
C       3.66437692     -2.60234916      0.15337498
C       3.28650023     -1.34021608     -0.59474288
O       1.87686044     -1.19761694     -0.55178937
P       1.21340741      0.25359789     -0.86368248
S       1.73133728      1.00699886     -2.58734385
O       1.76824709      1.03720042      0.44538092
C       1.90024198      2.44940731      0.43622886
C       1.90444461      2.94403133      1.86845545
N      -0.42066299     -0.01372585     -0.60457031
C      -1.27724976      0.83459175      0.02165158
O      -1.07998520      1.91902171      0.53257232
C      -2.60101011      0.22220665     -0.03774689
C      -3.81377207      0.65012114      0.46611841
C      -4.92588302     -0.16454094      0.23074910
C      -4.80042956     -1.36728453     -0.49532230
C      -3.56084286     -1.77513841     -0.99784242
C      -2.47879342     -0.95426524     -0.74777286
C      -1.07828949     -1.08295194     -1.13446780
O      -0.66435547     -1.99243471     -1.82573799
H       3.17572643     -3.47565149     -0.29126624
H       4.74684227     -2.75680905      0.13679501
H       3.33106798     -2.54681183      1.19498698
H       3.60792962     -1.41679087     -1.63766533
H       3.77433993     -0.47509987     -0.13524258
H       1.08758764      2.91851907     -0.12468424
H       2.84915203      2.70802576     -0.04407183
H       2.72339394      2.48493984      2.43216209
H       2.01720247      4.03112417      1.90534159
H       0.97520429      2.66749507      2.37697074
H      -3.89779064      1.58035432      1.01896896
H      -5.90264015      0.13285637      0.60927660
H      -5.68164451     -1.98319575     -0.66825350
H      -3.45051332     -2.69560899     -1.56252277
