27
CCCCSc1cc(O)cc(O)c1
C       4.91338754      0.23851232     -0.81107118
C       3.47412392      0.68294243     -0.60450125
C       2.59722118     -0.46836975     -0.10800370
C       1.15472259     -0.00751021      0.09473473
S       0.13721283     -1.40469180      0.68392380
C      -1.49837945     -0.69719622      0.56009689
C      -1.80893313      0.56076043      1.08592316
C      -3.10314496      1.06230491      0.97106258
O      -3.35325870      2.29731972      1.49456569
C      -4.10334597      0.32627590      0.34739925
C      -3.79461265     -0.93074654     -0.15822870
O      -4.79807666     -1.63518681     -0.75748381
C      -2.50580483     -1.45096232     -0.05488219
H       5.34959068     -0.12587851      0.12448547
H       5.52160223      1.07649186     -1.16571257
H       4.97363161     -0.56330522     -1.55388932
H       3.07854930      1.07121727     -1.55030598
H       3.45249957      1.50630755      0.11895239
H       2.63231454     -1.28744750     -0.83755437
H       3.00675334     -0.85147247      0.83532459
H       1.12323516      0.80175655      0.83088661
H       0.74325049      0.36405052     -0.84991058
H      -1.06074614      1.15617033      1.60006330
H      -4.29353476      2.50456298      1.36133876
H      -5.11499423      0.70569116      0.25221047
H      -4.44775137     -2.49595214     -1.04240209
H      -2.27551212     -2.43564444     -0.45112302
