31
O=C1CCCCCN1C(=O)c1ccccc1
O      -0.76640639      0.87350602     -1.70613890
C       0.31457062      0.68233506     -1.14754814
C       1.51155288      0.26683419     -1.98500234
C       2.21008791     -0.98226886     -1.46020897
C       3.26100858     -0.67619057     -0.39786507
C       2.69063793     -0.12084634      0.90333741
C       1.86580556      1.15108724      0.71880215
N       0.52418470      0.85678630      0.21736882
C      -0.53945537      1.12294209      1.09142953
O      -0.46060183      1.91816223      2.02828810
C      -1.82664488      0.39806599      0.90426678
C      -1.85387638     -0.95947774      0.55814120
C      -3.07708709     -1.62192316      0.43635234
C      -4.26959522     -0.93752933      0.67423986
C      -4.24436672      0.40812141      1.04110150
C      -3.02447080      1.07481334      1.16386507
H       1.12446869      0.03730446     -2.98654106
H       2.19609534      1.11267651     -2.10535160
H       2.71949317     -1.47017718     -2.30044960
H       1.48033198     -1.70202045     -1.07024989
H       3.80976715     -1.59816671     -0.16992929
H       3.99737788      0.02864266     -0.80386185
H       3.53379796      0.10257209      1.56855698
H       2.08924959     -0.89076206      1.40244148
H       2.36615940      1.85126577      0.04026934
H       1.80556526      1.65072430      1.69166491
H      -0.93405965     -1.50999427      0.38730143
H      -3.10160948     -2.67225751      0.15756978
H      -5.22105461     -1.45460920      0.57696480
H      -5.17362849      0.93845104      1.23262289
H      -3.00729771      2.12193269      1.45758753
