17
CC(O)C(N)C(=O)O
C      -1.53278072     -1.25603118     -0.73318880
C      -0.82049423      0.08776760     -0.66265805
O      -1.83289034      1.10302605     -0.55595983
C       0.14141803      0.20347032      0.53806235
N       0.40227168      1.65843891      0.80337136
C       1.45832398     -0.53829448      0.28011109
O       1.61938707     -1.55767955     -0.36869293
O       2.51590331      0.03699101      0.90074407
H      -2.11713252     -1.43570955      0.17607771
H      -2.24430205     -1.26449566     -1.56634921
H      -0.83617981     -2.08668629     -0.86981628
H      -0.28499584      0.26784306     -1.60230162
H      -1.42364736      1.81125662     -0.01319653
H      -0.31555219     -0.21201465      1.44290772
H       1.09763547      1.69236369      1.55708719
H       0.90366412      2.04021926     -0.00293577
H       3.26937140     -0.55046516      0.67673753
