30
O=S(=O)([O-])CCCSSCCCS(=O)(=O)[O-].[Na+].[Na+]
O      -5.63782844     -1.48015689     -0.52009588
S      -4.74466658     -0.84726985      0.44961894
O      -3.90972076     -1.78057845      1.20093253
O      -5.36600506      0.20854664      1.24563273
C      -3.58639054      0.02201574     -0.58573108
C      -2.65053632      0.97851509      0.15090024
C      -1.59695999      0.26657113      0.99812496
S      -0.40764453      1.45347096      1.74223163
S       0.68138802      2.16382333      0.14307776
C       2.23694266      1.19034691      0.19806603
C       2.07592852     -0.22198613     -0.35303339
C       3.29281407     -1.11322370     -0.10482707
S       4.80733369     -0.56292262     -0.86192648
O       5.69289045     -1.71551743     -0.70280090
O       4.42639508     -0.27315065     -2.24178819
O       5.18850178      0.60292050     -0.06760615
Na      0.00000000      0.00000000      0.00000000
Na      0.00000000      0.00000000      0.00000000
H      -3.02412317     -0.72464698     -1.15629636
H      -4.19152867      0.59931916     -1.29470608
H      -3.23150369      1.66566004      0.77748125
H      -2.15787222      1.59010199     -0.61404325
H      -1.05263162     -0.48150926      0.41517712
H      -2.06647761     -0.24676267      1.84057453
H       2.61279516      1.18285887      1.22649470
H       2.95263169      1.74971237     -0.41106752
H       1.86222225     -0.17508603     -1.42767976
H       1.22052162     -0.71671608      0.11845224
H       3.08807136     -2.10980537     -0.51279597
H       3.48545283     -1.22453061      0.96769987
