21
CNC(=O)c1ccc(N)cc1
C       3.90330476      0.28099924      0.02440388
N       2.50993658     -0.05580734     -0.12546532
C       1.56641908      0.48242229      0.72708240
O       1.84672108      1.19930959      1.68093847
C       0.14304252      0.18256484      0.40856475
C      -0.83450005      1.10688028      0.79012671
C      -2.18163619      0.86369583      0.50497373
C      -2.57647103     -0.32509751     -0.11331637
N      -3.90731589     -0.50849328     -0.50274972
C      -1.59162309     -1.22568925     -0.52870504
C      -0.24038172     -0.99026360     -0.25057098
H       4.19053829      0.24609414      1.07879212
H       4.49738163     -0.43504386     -0.54795286
H       4.06397245      1.29036312     -0.36362943
H       2.20426334     -0.39709645     -1.02642467
H      -0.54894483      2.02688649      1.29622087
H      -2.92063902      1.61292628      0.77692259
H      -4.16826273     -1.48006329     -0.63880169
H      -4.57681027     -0.00927054      0.07517020
H      -1.87081346     -2.12793077     -1.06706035
H       0.49181853     -1.73738621     -0.54145916
