8
OP(O)O.[K+]
O      -1.33407325     -0.27746465      0.06312054
P      -0.01530304     -0.13140895     -0.83855335
O       0.91272816     -1.00455814      0.13606036
O       0.42109405      1.27986357     -0.21295735
K       0.00000000      0.00000000      0.00000000
H      -1.27719093     -1.15851941      0.49603936
H       1.70391769     -0.45426557      0.33127488
H      -0.41117267      1.74635314      0.02501555
