33
CC(C)=CCC/C(C)=C\CCC=O
C       4.07016847      1.37719883     -0.83737104
C       2.85520164      0.84283348     -0.12506187
C       2.20019249      1.82792046      0.80450018
C       2.42525468     -0.41473194     -0.34712830
C       1.25714296     -1.11033243      0.29935323
C       0.03731420     -1.12970375     -0.62702098
C      -1.15623359     -1.81396056      0.00769319
C      -1.18459357     -3.31396148     -0.13217298
C      -2.15435621     -1.16276457      0.63771734
C      -2.24993237      0.31808946      0.88993546
C      -3.23991360      0.97646047     -0.06218765
C      -3.35862580      2.46030290      0.17788510
O      -2.76429051      3.07663717      1.05597776
H       4.83063042      1.68260230     -0.11119780
H       4.52415045      0.63340057     -1.50062905
H       3.80136323      2.24607964     -1.44699292
H       2.86997194      2.06047477      1.63870254
H       1.25607919      1.47027602      1.22117443
H       1.97894735      2.75828329      0.27033229
H       2.97141572     -1.03259770     -1.05983644
H       1.56636451     -2.13611215      0.53669071
H       1.00069594     -0.65210623      1.26032043
H       0.28615748     -1.64184601     -1.56615982
H      -0.22133492     -0.10584411     -0.92397784
H      -0.30655543     -3.75971356      0.34558669
H      -1.18735286     -3.59658749     -1.18993946
H      -2.07297868     -3.75647070      0.33079714
H      -2.98174612     -1.74341557      1.04561377
H      -2.57150207      0.46877845      1.92836032
H      -1.27074641      0.80333356      0.81510835
H      -4.23942390      0.54221870      0.05243015
H      -2.92584321      0.83726758     -1.10286341
H      -4.04562141      2.98799060     -0.50606969
