55
CN(C)[C@@H]1C(=O)/C(=C(\N)O)C(=O)[C@@]2(O)C(=O)C3=C(O)c4c(O)ccc(Cl)c4[C@@H](O)[C@H]3C[C@@H]12.[Cl-].[H+]
C      -2.08813551      3.10024673     -0.41741566
N      -3.02863577      2.05411164     -0.12549209
C      -4.02655062      2.11662521     -1.18687018
C      -2.46683943      0.72766524     -0.13467937
C      -3.53274744     -0.21481909      0.29747233
O      -4.73524994      0.11456140      0.48947578
C      -3.12900303     -1.60650709      0.50435752
C      -3.99618088     -2.60129536      0.38072644
N      -5.33961254     -2.28460085      0.03955326
O      -3.52427093     -3.88719060      0.59493497
C      -1.73247322     -1.82058668      0.85343750
O      -1.19657867     -2.93647778      0.71152846
C      -0.98472296     -0.65769122      1.38157450
O      -1.49836807     -0.35999446      2.67467982
C       0.40423017     -1.06171799      1.60289060
O       0.66586696     -1.94364259      2.45124764
C       1.53387053     -0.47677848      0.86849238
C       2.66690682     -1.12220482      0.82951140
O       2.83270037     -2.34043743      1.46800757
C       3.76030419     -0.52185759      0.08128685
C       4.99144674     -1.16059970      0.07011544
O       5.09839047     -2.37172493      0.73989690
C       6.08116050     -0.62170447     -0.58077825
C       5.94093582      0.57596500     -1.23242433
C       4.72261009      1.20256094     -1.21924436
Cl      4.55146990      2.73211166     -2.05384214
C       3.60824860      0.66135809     -0.56038340
C       2.31121607      1.35176455     -0.61550261
O       1.83499473      1.22837111     -1.95361053
C       1.26678536      0.85065988      0.26615121
C      -0.06455726      0.63978543     -0.48858594
C      -1.17608928      0.58488959      0.57133574
Cl      0.00000000      0.00000000      0.00000000
H       0.00000000      0.00000000      0.00000000
H      -2.63930523      4.06616363     -0.20835398
H      -1.88914305      3.14615186     -1.51683880
H      -1.19047046      3.13713541      0.17970693
H      -3.94284373      3.05695079     -1.79377347
H      -5.06067579      2.00286939     -0.82682102
H      -3.83564914      1.29742384     -1.90880911
H      -2.33173146      0.49056178     -1.23594047
H      -5.97316116     -2.00116381      0.83258265
H      -5.70100424     -2.32392955     -0.93737950
H      -3.72953188     -4.60164831     -0.11660757
H      -0.75819358      0.10480723      3.16369251
H       3.07751966     -2.42490626      2.44570762
H       5.99002189     -2.84239185      0.73677278
H       7.04116482     -1.10904054     -0.59576325
H       6.78488585      1.04176244     -1.76391027
H       2.46143895      2.46725591     -0.50845778
H       2.17764282      0.39569766     -2.36067683
H       0.97021328      1.58169849      1.07798180
H      -0.22575239      1.44864831     -1.22043548
H      -0.01842250     -0.32880070     -1.02717356
H      -0.95812445      1.44390893      1.27664935
