33
O=[N+]([O-])c1cc(C2CCCCC2)c(O)c([N+](=O)[O-])c1
O       2.72481702     -2.85598842     -1.63437967
N       3.40814653     -1.95823359     -1.12401590
O       4.64606590     -1.93369475     -1.11271965
C       2.70048774     -0.83936729     -0.48456236
C       1.29862867     -0.82283131     -0.47197575
C       0.59489734      0.23718127      0.13391629
C      -0.93234938      0.23468498      0.13591197
C      -1.50075755     -0.96772862      0.91214658
C      -3.02870876     -0.95903550      0.91365774
C      -3.59291040     -0.89597659     -0.50277274
C      -3.03360317      0.29187111     -1.28044223
C      -1.50567513      0.28908519     -1.29229180
C       1.33134620      1.28294372      0.72844527
O       0.60128736      2.29044111      1.30446703
C       2.74076189      1.25795662      0.71100853
N       3.52559622      2.33683983      1.32426735
O       4.75979696      2.25773967      1.27602201
O       2.90140847      3.26791080      1.85681145
C       3.43094577      0.19679375      0.10448927
H       0.74218106     -1.63766149     -0.93525494
H      -1.29397965      1.13432371      0.64962663
H      -1.13692349     -0.95205439      1.94702583
H      -1.15537111     -1.91239851      0.47396705
H      -3.38829391     -0.09708341      1.48903530
H      -3.40116397     -1.85733584      1.41886307
H      -4.68575987     -0.82714098     -0.46109100
H      -3.35110904     -1.82529237     -1.03313837
H      -3.39347544      1.22538108     -0.83058657
H      -3.40947507      0.26830921     -2.30955096
H      -1.14530442      1.18832759     -1.80716368
H      -1.16061923     -0.56851346     -1.88318600
H       1.18897828      2.97308358      1.69246534
H       4.52013417      0.17746331      0.09100489
