38
Cc1cc(S(=O)(=O)[O-])ccc1N/N=C1/C(=O)C=Cc2ccccc21.[Na+]
C       2.09198508     -1.79472085      2.04599201
C       2.11069224     -0.66540885      1.05433072
C       3.09349366     -0.66096882      0.05058670
C       3.12401294      0.36422713     -0.89790435
S       4.36680281      0.31784501     -2.21708896
O       4.53278568     -1.11401456     -2.45617720
O       3.72400195      1.05281399     -3.30399489
O       5.49836413      0.98772770     -1.58400457
C       2.18313927      1.39111956     -0.86815884
C       1.20258687      1.39247091      0.12566502
C       1.14500739      0.36918800      1.08979755
N       0.11749381      0.32482853      2.09045960
N      -0.88599016      1.24972718      2.04165536
C      -1.87400013      1.05936030      1.20922394
C      -2.85421903      2.21837432      1.06193416
O      -3.22971887      2.88653875      2.01240490
C      -3.31698033      2.49566706     -0.31355287
C      -3.25931845      1.52764826     -1.23597760
C      -2.80395386      0.17263131     -0.90005500
C      -3.03609504     -0.87636610     -1.79875559
C      -2.65036243     -2.17930725     -1.47750265
C      -2.04096025     -2.44637538     -0.25350358
C      -1.79642982     -1.40843205      0.64591598
C      -2.14796945     -0.09601913      0.31449742
Na      0.00000000      0.00000000      0.00000000
H       2.18651175     -1.40880188      3.06596277
H       2.92303863     -2.48898845      1.88162044
H       1.16247445     -2.36528426      1.95563304
H       3.83833623     -1.45164191     -0.01336476
H       2.21929214      2.17969118     -1.61490728
H       0.48993054      2.21047008      0.14274685
H       0.60508384      0.33209296      2.99073204
H      -3.71446010      3.48181146     -0.51188834
H      -3.60179950      1.71648522     -2.24892070
H      -3.51788947     -0.69276166     -2.75627236
H      -2.82269254     -2.98708547     -2.18456878
H      -1.73944482     -3.46068711     -0.00418433
H      -1.32274913     -1.63385517      1.59637984
