18
Nc1nc(N)c2nccnc2n1
N       3.24775823     -0.23623188     -0.94342651
C       1.93497034     -0.07844476     -0.55486481
N       1.58316130      1.09848559     -0.04743185
C       0.30127203      1.22881241      0.32613503
N      -0.02967714      2.46354184      0.91026041
C      -0.64704304      0.21488575      0.23017633
N      -1.95857561      0.36053099      0.60014266
C      -2.73969221     -0.72320046      0.44344334
C      -2.24083446     -1.89890421     -0.06889856
N      -0.94864770     -2.03400972     -0.44415005
C      -0.13747494     -0.97755591     -0.30159118
N       1.12754593     -1.12405859     -0.68205152
H       3.50183365     -1.21472072     -0.93088330
H       3.84475953      0.40601595     -0.44159326
H       0.73563217      3.11536598      0.77448978
H      -0.93301646      2.79567092      0.58607446
H      -3.77656282     -0.62027335      0.74134853
H      -2.86540879     -2.77590983     -0.19717951
