34
CCCCc1c(C)[nH]c(NCC)nc1=O
C      -5.21010219      0.20837308      0.89834290
C      -4.24571412     -0.78179288      0.26509053
C      -2.80690821     -0.26605018      0.30484587
C      -1.84098669     -1.26706597     -0.33539979
C      -0.41896575     -0.76992924     -0.30678611
C       0.23067723     -0.14451864     -1.30928222
C      -0.39024968      0.23910533     -2.62403910
N       1.55106473      0.20534585     -1.13440425
C       2.17624070      0.03009775      0.05983014
N       3.44364994      0.54447986      0.05550182
C       4.31134238      0.36031247      1.21121070
C       5.59819063      1.14327890      1.01541310
N       1.63411196     -0.54619877      1.07946483
C       0.35194983     -1.03648133      0.96582452
O      -0.18473121     -1.66758649      1.87240594
H      -5.19058119      1.16724385      0.37059394
H      -4.95509251      0.38806843      1.94763406
H      -6.23250061     -0.18028076      0.85899898
H      -4.54762138     -0.96376456     -0.77290442
H      -4.31300059     -1.73870204      0.79563250
H      -2.51655595     -0.07715048      1.34582340
H      -2.74897179      0.69464838     -0.22231253
H      -1.91062969     -2.23495734      0.17691811
H      -2.15540156     -1.47688499     -1.36428599
H      -0.16441130      1.28542532     -2.85872253
H      -1.47891178      0.14494763     -2.63249140
H       0.01346729     -0.38629341     -3.42693105
H       1.93273825      0.89372952     -1.76927858
H       3.92895580      0.40049358     -0.82178101
H       4.54285357     -0.70310627      1.33771987
H       3.81200173      0.71425536      2.12019509
H       5.39202997      2.21142235      0.88900366
H       6.13695890      0.79912688      0.12618117
H       6.25510328      1.02058383      1.88198787
