34
COC(=O)C(C)c1ccc2cc(OC)ccc2c1
C      -4.60818238      0.05440683      2.05093546
O      -3.77835800      0.29212654      0.91381647
C      -3.60362514     -0.80176826      0.11530543
O      -4.11549577     -1.89714366      0.31108280
C      -2.67268853     -0.46342521     -1.04205905
C      -2.91761340     -1.40062159     -2.22705320
C      -1.21498148     -0.47182687     -0.61664481
C      -0.62057838     -1.61964833     -0.07723684
C       0.72198915     -1.61065893      0.30837117
C       1.50330781     -0.45473449      0.16454523
C       2.85485893     -0.42938613      0.54717109
C       3.62937417      0.72540442      0.40205339
O       4.92681138      0.59924185      0.81683336
C       5.75740519      1.74597877      0.68853559
C       3.04800500      1.87270666     -0.13204171
C       1.70291412      1.86369121     -0.51784167
C       0.91816138      0.70884520     -0.37635548
C      -0.43412354      0.68632001     -0.76066353
H      -4.16958252     -0.71710980      2.69125415
H      -5.61725501     -0.22901894      1.73636053
H      -4.67302772      0.98382756      2.62348642
H      -2.95262042      0.54316415     -1.38272704
H      -2.28758785     -1.12656988     -3.08046979
H      -3.96415375     -1.35049771     -2.54793997
H      -2.70493068     -2.44615790     -1.97708390
H      -1.19672739     -2.53477836      0.05137224
H       1.15495304     -2.51754929      0.72498335
H       3.31933180     -1.31968564      0.96565629
H       5.38468361      2.57359747      1.30099611
H       5.86049974      2.04375405     -0.36028551
H       6.75260590      1.48078021      1.05807364
H       3.60878738      2.79169383     -0.26329272
H       1.27123098      2.77204730     -0.93226255
H      -0.88338760      1.58633173     -1.17687494
