25
O=C(CCCl)NCc1ccccc1
O       2.35570290     -1.68784170     -0.94845328
C       2.04411137     -0.75547966     -0.21658571
C       3.03371538      0.00410318      0.63533323
C       4.43782135     -0.53711142      0.43889950
Cl      5.59025933      0.36716554      1.45263827
N       0.75594159     -0.29229909     -0.09007733
C      -0.33655040     -0.93827020     -0.77898803
C      -1.61786543     -0.17717437     -0.57511440
C      -1.92237582      0.92732437     -1.38356204
C      -3.09605474      1.65354176     -1.17669930
C      -3.97203413      1.28788967     -0.15633621
C      -3.67467521      0.19796684      0.65983354
C      -2.50130009     -0.52971025      0.45483691
H       2.73033838     -0.09130753      1.68457500
H       2.98926724      1.06335135      0.35594422
H       4.50405609     -1.59245029      0.72174758
H       4.76296619     -0.43975955     -0.60174370
H       0.53273730      0.39327702      0.62041710
H      -0.42516770     -1.96341063     -0.40019267
H      -0.09435075     -1.01349715     -1.84579501
H      -1.24396959      1.22645649     -2.18012977
H      -3.32687051      2.50518656     -1.81159666
H      -4.88661453      1.85318270      0.00332759
H      -4.35766331     -0.08541812      1.45668585
H      -2.28142489     -1.37571549      1.10267547
