50
CCCCS(=O)(=O)C(S(=O)(=O)CCCC)S(=O)(=O)CCCC
C      -6.26625759     -1.58657573     -0.33105122
C      -4.75884041     -1.74229420     -0.46518295
C      -4.01498337     -0.71820754      0.39299509
C      -2.49884485     -0.92024868      0.41115460
S      -1.71851188     -0.55745367     -1.16462001
O      -1.90164453     -1.71136094     -2.02417501
O      -2.25025844      0.71081959     -1.63589052
C       0.00639750     -0.31931524     -0.90733095
S       0.79064871     -1.81929526     -0.40113062
O       0.11707785     -2.32580219      0.77935767
O       0.91386654     -2.66216405     -1.57799721
C       2.47276530     -1.43581858      0.08556031
C       3.26484434     -2.70563479      0.39269300
C       4.69106961     -2.37369121      0.82889972
C       5.48691335     -3.63211964      1.13596260
S       0.44775273      1.04227984      0.10668555
O       0.12438103      0.72394616      1.48282241
O       1.82159684      1.36522824     -0.24058385
C      -0.53321741      2.47069193     -0.35110960
C      -0.07322310      3.75970136      0.33345768
C       1.06448322      4.46847825     -0.40479886
C       1.41952418      5.78837533      0.26374299
H      -6.58625201     -1.73805789      0.70479833
H      -6.58698356     -0.58906799     -0.64808544
H      -6.78026645     -2.32356054     -0.95604737
H      -4.49087417     -1.62300641     -1.51974368
H      -4.47492539     -2.75793242     -0.16677839
H      -4.37621229     -0.79705767      1.42615833
H      -4.25871830      0.29497834      0.05253190
H      -2.07758719     -0.24330966      1.15380603
H      -2.26442474     -1.95058549      0.68427567
H       0.41578272     -0.08876703     -1.89885501
H       2.93832905     -0.89529286     -0.74357516
H       2.43445982     -0.80847006      0.97914832
H       2.76000396     -3.27554158      1.18216002
H       3.29259557     -3.35167791     -0.49294261
H       5.20029181     -1.80981959      0.03866324
H       4.66912445     -1.73585631      1.72019810
H       5.55543895     -4.27781010      0.25463867
H       5.02093024     -4.20322491      1.94531070
H       6.50369820     -3.37136901      1.44590480
H      -1.55121765      2.26636034     -0.00883592
H      -0.50676503      2.57168050     -1.43925830
H       0.21788519      3.56271362      1.37181694
H      -0.93010550      4.44465781      0.36842406
H       0.77040162      4.66207390     -1.44289651
H       1.95997980      3.84185048     -0.43365692
H       1.74674256      5.62911785      1.29618206
H       0.56031548      6.46657656      0.27550941
H       2.23281323      6.28085907     -0.27846609
