41
CCOP(=S)(OCC)SCSP(=S)(OCC)OCC
C      -4.41050768      0.57913901      2.70798426
C      -4.40024579      0.63976978      1.19387878
O      -3.15895921      0.12925090      0.73417153
P      -2.81425224      0.17389639     -0.85490468
S      -2.60489726      1.99654696     -1.51775950
O      -4.13003675     -0.58125652     -1.43777190
C      -4.25261136     -0.76838092     -2.83849224
C      -5.19707033     -1.92631106     -3.08755905
S      -1.19928706     -1.15370796     -1.07653697
C      -0.00298644     -0.46926284      0.08555052
S       1.52027625     -1.43309008      0.07038935
P       2.73799878     -0.33259236      1.38705130
S       2.16804731     -0.21597767      3.24739376
O       2.92768813      1.12578407      0.69064811
C       3.75387901      2.09621212      1.31724735
C       4.23334489      3.07076926      0.26074345
O       4.24894248     -0.91731588      1.26334286
C       4.90702723     -0.93801110      0.00760874
C       5.47116330     -2.32393951     -0.22575006
H      -4.26875266     -0.45012301      3.05394900
H      -5.35484515      0.95924227      3.10763051
H      -3.58747172      1.17064611      3.12270616
H      -5.21767416      0.03276412      0.79349352
H      -4.53031638      1.67409760      0.86409580
H      -4.65675157      0.14550176     -3.28422116
H      -3.27776892     -0.97842571     -3.28847844
H      -5.33359741     -2.09559335     -4.15927303
H      -6.17425972     -1.73313079     -2.63247903
H      -4.80913152     -2.84340440     -2.63168367
H       0.22252186      0.56380833     -0.19047623
H      -0.43046282     -0.47811151      1.09102166
H       3.16791239      2.62589201      2.07435638
H       4.61239412      1.62016289      1.80087792
H       4.86731901      3.84480372      0.70235176
H       3.38345113      3.55040563     -0.23613643
H       4.80242455      2.54758344     -0.51507849
H       4.23349597     -0.65966515     -0.80813926
H       5.71790643     -0.20379953      0.03835112
H       6.00631874     -2.37179653     -1.17807827
H       4.67094124     -3.07102674     -0.23208018
H       6.15883336     -2.60135376      0.58005476
