52
COc1ccc2cc(C(C)C(=O)OCC(=O)N(CCO)CCO)ccc2c1
C       7.72242656      1.42318838     -1.33575840
O       7.05389927      0.22098503     -1.69895078
C       5.85671940     -0.03118422     -1.08796923
C       5.28183512     -1.25665012     -1.42113372
C       4.05873942     -1.64272152     -0.86976372
C       3.38578220     -0.80435963      0.02873790
C       2.15574765     -1.17810631      0.59635735
C       1.48123918     -0.33723380      1.49560836
C       0.16259739     -0.78370699      2.10480776
C       0.35151795     -1.17031035      3.57300862
C      -0.94934330      0.24734053      1.94813102
O      -1.57215232      0.75111033      2.87249062
O      -1.17890706      0.50160464      0.62852895
C      -2.25876198      1.39864487      0.35945741
C      -3.63020858      0.72323963      0.47318931
O      -4.50107499      1.17978598      1.22248887
N      -3.88098969     -0.41467714     -0.30446355
C      -5.15830781     -1.10325961     -0.08663909
C      -6.35903486     -0.48357730     -0.81726845
O      -6.30418247      0.94085770     -0.84374058
C      -3.14336481     -0.70210073     -1.54269861
C      -3.71330575     -0.00507995     -2.78511772
O      -3.97938886      1.36981238     -2.53494639
C       2.06094175      0.89335692      1.82935082
C       3.28256050      1.27772163      1.27002281
C       3.95903818      0.44061917      0.36931738
C       5.19298532      0.81500200     -0.19672332
H       7.13743172      2.30334639     -1.62518029
H       8.66849899      1.45732747     -1.88428197
H       7.95808128      1.43657095     -0.26599297
H       5.79208166     -1.91938151     -2.11675088
H       3.63859524     -2.60525077     -1.14920712
H       1.72072981     -2.14165590      0.33413249
H      -0.19543894     -1.68065378      1.58123235
H       1.11996076     -1.94315696      3.68051596
H       0.65045868     -0.31256029      4.18495838
H      -0.58138569     -1.56180808      3.99402807
H      -2.13270874      1.79571472     -0.65205327
H      -2.22212405      2.26212570      1.03401550
H      -5.36522423     -1.07752772      0.99006227
H      -5.04785938     -2.15955559     -0.35474272
H      -6.39835142     -0.82973702     -1.85389602
H      -7.29444977     -0.79180735     -0.33901548
H      -6.05089395      1.22582123      0.06289318
H      -3.11774829     -1.78620968     -1.69199740
H      -2.10725192     -0.38119628     -1.42522649
H      -4.63386450     -0.48320910     -3.13151764
H      -2.99051421     -0.06740036     -3.60484124
H      -4.81633079      1.40457257     -2.01980440
H       1.57092128      1.56722364      2.52956618
H       3.70478268      2.24151034      1.54776959
H       5.61559636      1.77659584      0.07511607
