21
COc1c(Cl)cc(Cl)c(OC)c1O
C      -2.65970251     -1.73458577      0.14337030
O      -2.56226003     -0.35313786      0.45803927
C      -1.35206513      0.26971754      0.30213480
C      -1.22792082      1.52171981      0.93605543
Cl     -2.52589330      2.19104711      1.86929541
C      -0.05504695      2.27905470      0.83772771
C       1.02512023      1.79170596      0.10851203
Cl      2.43863311      2.77106269     -0.02507791
C       0.93303178      0.54281043     -0.50811594
O       1.96173675      0.02379773     -1.26078042
C       2.88104148     -0.68241926     -0.42033476
C      -0.26134244     -0.19493949     -0.44300567
O      -0.31831955     -1.36487594     -1.15791755
H      -3.60998993     -2.09755190      0.54783914
H      -2.69186668     -1.88640754     -0.93953459
H      -1.86290525     -2.31776020      0.61660950
H       0.00781065      3.24888839      1.32498471
H       2.38955512     -1.52725877      0.07465224
H       3.67625464     -1.07970788     -1.05805911
H       3.34055455     -0.02441908      0.32382286
H       0.47357428     -1.37674068     -1.73021744
