43
COc1ccc2c3c1O[C@H]1[C@@H](O)C=C[C@H]4[C@@H](C2)N(C)CC[C@]314
C       5.18461462     -0.10913187      0.63151097
O       3.94170401      0.55275521      0.81987786
C       2.82151552     -0.10844180      0.40951537
C       2.77819633     -1.36852597     -0.20608343
C       1.55723136     -1.92460883     -0.65177819
C       0.35559851     -1.24571025     -0.45181834
C       0.42188798     -0.04207123      0.22344429
C       1.61482436      0.54220768      0.59276942
O       1.43661537      1.81944386      1.07043901
C       0.05480349      2.16259115      0.68631714
C       0.06404895      3.04447070     -0.59816674
O       1.36463872      3.55445849     -0.89017896
C      -0.46849342      2.40551718     -1.84878742
C      -1.31718437      1.36574006     -1.84197993
C      -1.78621832      0.74199073     -0.54941807
C      -2.18296200     -0.76889080     -0.64497895
C      -0.96535618     -1.68393053     -1.02748285
N      -2.87269836     -1.11455052      0.62773712
C      -3.52891669     -2.41844769      0.59099390
C      -2.01486513     -0.98607070      1.81185641
C      -1.35439407      0.39788268      1.90142873
C      -0.73261208      0.84340513      0.56267034
H       5.22244425     -1.04730181      1.19504397
H       5.97334354      0.54326732      1.01845582
H       5.38457123     -0.27822619     -0.43174362
H       3.68436851     -1.93661930     -0.39223240
H       1.56772693     -2.87700658     -1.17719259
H      -0.34132471      2.77445672      1.50680809
H      -0.57022995      3.91965988     -0.40990871
H       1.99256087      3.01350545     -0.37109559
H      -0.17941846      2.85966307     -2.79344232
H      -1.71511490      0.98787530     -2.78007408
H      -2.68290656      1.31099541     -0.25969324
H      -2.92857343     -0.86713389     -1.44621056
H      -0.86481665     -1.65547550     -2.12090732
H      -1.15379872     -2.72883897     -0.76220358
H      -4.17026846     -2.54285397      1.47088124
H      -4.18332329     -2.50077844     -0.28362526
H      -2.82015815     -3.25232011      0.57403188
H      -2.61804110     -1.12677772      2.71767733
H      -1.24776094     -1.76999083      1.83018501
H      -0.60649559      0.38129859      2.70479485
H      -2.11476301      1.13251892      2.19932586
