8
CS(=O)(=O)F
C       0.91743749      0.11600078     -0.04787339
S      -0.81948321     -0.21491464      0.04446479
O      -1.10763953     -0.80372367      1.33603094
O      -1.23472370     -0.84241835     -1.19314893
F      -1.52856535      1.21004306      0.05829333
H       1.11666179      0.67232260     -0.96528768
H       1.20674691      0.69975192      0.82755101
H       1.44956558     -0.83706169     -0.06003008
