21
CC(=O)Nc1ccc([N+](=O)[O-])cc1
C      -3.94311039      0.00495212      0.39954745
C      -2.52419671      0.48039903      0.59082088
O      -2.28136933      1.47477628      1.26458008
N      -1.61122446     -0.30649899     -0.08899027
C      -0.21073143     -0.15074256     -0.13439059
C       0.50912951     -1.07354738     -0.90760601
C       1.90247869     -0.99365372     -1.00799508
C       2.58490984      0.02025053     -0.32720315
N       4.04669868      0.11072706     -0.42742967
O       4.61338313      1.02216793      0.19168658
O       4.62825614     -0.73164522     -1.12658500
C       1.88067174      0.94679366      0.44797570
C       0.48591605      0.85619322      0.54050282
H      -3.99043223     -1.08765709      0.37936523
H      -4.33675339      0.40796341     -0.53719024
H      -4.55874314      0.35496138      1.23320911
H      -1.99064670     -1.07871232     -0.62271322
H      -0.00305848     -1.86900122     -1.44438995
H       2.43356357     -1.72355936     -1.61565061
H       2.39210734      1.74292226      0.98576983
H      -0.02684844      1.59291096      1.15268809
