37
O=C1CCCCCCCCCCCN1
O       1.40061903     -3.45272953      1.28434254
C       0.73698621     -2.68668713      0.59055820
C       1.26337104     -1.36052669      0.07354040
C       2.53068179     -0.89410288      0.78259746
C       2.99154087      0.50912019      0.35734610
C       1.95214762      1.61067489      0.61636972
C       1.14812853      1.97956218     -0.64013980
C      -0.15688684      2.72283563     -0.32246734
C      -1.27863934      1.82209304      0.21708699
C      -1.92350373      0.95236053     -0.87169041
C      -2.90622713     -0.09080286     -0.31835842
C      -2.24770648     -1.25964382      0.42558189
C      -1.49616364     -2.22155999     -0.50044307
N      -0.53915464     -3.03471945      0.22918108
H       1.45041548     -1.45991671     -1.00127383
H       0.48429102     -0.61501336      0.22646004
H       3.34199174     -1.60674927      0.58926661
H       2.36784082     -0.90284112      1.86797487
H       3.89200363      0.74387340      0.93897063
H       3.29605938      0.50200688     -0.69588488
H       2.47775587      2.51525827      0.94875606
H       1.29941615      1.32038807      1.44612162
H       0.94077537      1.09780399     -1.25235097
H       1.77535768      2.63241936     -1.26084534
H       0.05113011      3.51152759      0.41091046
H      -0.51029821      3.22616653     -1.23069399
H      -2.05859410      2.46304560      0.64727005
H      -0.89981332      1.20940503      1.03885930
H      -2.47491454      1.61347055     -1.55254572
H      -1.16183142      0.46060336     -1.48162336
H      -3.50134830     -0.49062531     -1.14862010
H      -3.61053209      0.40831821      0.35836136
H      -1.59122665     -0.87944005      1.21491611
H      -3.02849439     -1.82908191      0.94632605
H      -2.20364750     -2.90644088     -0.98022080
H      -0.96284913     -1.69648545     -1.29618196
H      -0.84868089     -3.91356687      0.62796586
