36
CN1C(C(=O)Nc2ccccn2)=C(O)c2ccccc2S1(=O)=O
C      -0.53026903     -1.79662193      1.25362906
N      -0.50570089     -0.32284429      1.06659170
C      -0.34163575      0.12297173     -0.30140408
C       1.05483904      0.31519201     -0.82389303
O       1.23919867      0.53337097     -2.01847758
N       2.00261667      0.21459380      0.15814616
C       3.38652622      0.31630665      0.05247991
C       4.06161551      0.55438079     -1.13645375
C       5.45367919      0.63419949     -1.11362373
C       6.12748835      0.47431483      0.08932069
C       5.37543561      0.23831820      1.22536381
N       4.02643404      0.15368226      1.23036711
C      -1.42899099      0.29295455     -1.08605679
O      -1.34961147      0.64404539     -2.42542426
C      -2.81536793      0.12196419     -0.59730343
C      -3.88106227     -0.12452822     -1.47367521
C      -5.18502517     -0.28545253     -0.98993601
C      -5.44644453     -0.19974521      0.37785123
C      -4.40605771      0.05391510      1.26699853
C      -3.11262023      0.22300041      0.76527315
S      -1.76767780      0.51952277      1.86008609
O      -1.47578117      1.93560677      1.81710427
O      -2.04410702     -0.16502993      3.10575818
H      -0.38288055     -2.04218932      2.30949259
H      -1.46902211     -2.23437504      0.90212237
H       0.29253785     -2.26101108      0.69947608
H       1.68605100      0.06553320      1.10970022
H       3.54519154      0.68409191     -2.07938766
H       6.00346156      0.82288163     -2.03154968
H       7.20872484      0.53362820      0.14023944
H       5.85061868      0.10711176      2.19344372
H      -0.40204083      0.74273142     -2.67169277
H      -3.70643127     -0.19511954     -2.54614898
H      -5.99836963     -0.47603093     -1.68684496
H      -6.46169891     -0.32615499      0.74676501
H      -4.60362351      0.12478498      2.33422461
