23
Clc1ccc(Oc2cc(Cl)c(Cl)c(Cl)c2)c(Cl)c1
Cl     -4.93414543      0.86476857     -1.89612216
C      -3.54158481      0.39474330     -1.00194144
C      -2.67208278      1.37205385     -0.51622255
C      -1.54087138      0.99618658      0.21018073
C      -1.27806549     -0.36026784      0.43288443
O      -0.18799205     -0.74299730      1.18219402
C       1.05419498     -0.38572691      0.70815995
C       1.98794141      0.02362497      1.65752890
C       3.28238459      0.37505604      1.26176217
Cl      4.37140355      0.89066781      2.50390203
C       3.65709771      0.30515756     -0.08867039
Cl      5.26051925      0.74707570     -0.58331353
C       2.71400563     -0.13151431     -1.03209305
Cl      3.08047093     -0.26572152     -2.71850100
C       1.41910542     -0.48296790     -0.63448190
C      -2.16659615     -1.33371736     -0.03933251
Cl     -1.88441877     -3.01283263      0.23962216
C      -3.29702351     -0.95702957     -0.76534765
H      -2.87424215      2.42581557     -0.69383340
H      -0.87697979      1.76089708      0.60513331
H       1.70181071      0.07026499      2.70617022
H       0.70874038     -0.84280023     -1.37472390
H      -3.98367223     -1.71073646     -1.14134153
