36
CCCCOC(=O)/C=C/C(=O)OCCCC
C      -6.70242721     -0.07293434      1.26219883
C      -6.11428513     -0.13640400     -0.13877810
C      -4.64053303      0.26194536     -0.19904098
C      -3.71899476     -0.69408662      0.55381469
O      -2.35243131     -0.27374327      0.40398902
C      -1.70718029     -0.75715188     -0.68516668
O      -2.16430828     -1.49494515     -1.54109961
C      -0.33163609     -0.23003944     -0.66895832
C       0.51030511     -0.56695951     -1.65552788
C       1.90561310     -0.09972122     -1.74021901
O       2.64598259     -0.43354332     -2.65216244
O       2.22481544      0.71154441     -0.70333544
C       3.56821123      1.22054073     -0.70155061
C       4.49900244      0.23294586     -0.00436975
C       5.92809576      0.76367036      0.06743447
C       6.85353233     -0.22058242      0.76462685
H      -7.77747421     -0.27693926      1.22762268
H      -6.55990385      0.91838990      1.70380531
H      -6.24597185     -0.81573156      1.92290244
H      -6.24404211     -1.14687051     -0.54345102
H      -6.68421805      0.53999027     -0.78688587
H      -4.50676921      1.27884221      0.19064065
H      -4.33178460      0.30946459     -1.25057050
H      -3.85098923     -1.73140466      0.22372226
H      -3.93307116     -0.66865750      1.62685636
H      -0.05543150      0.41802113      0.15330976
H       0.20692691     -1.21978458     -2.46865646
H       3.90515662      1.44992711     -1.71965159
H       3.54606500      2.16775239     -0.15164567
H       4.48132288     -0.72843404     -0.53183764
H       4.11833274      0.02787733      1.00402335
H       6.30458195      0.95681203     -0.94381768
H       5.94474248      1.71731424      0.60774083
H       7.87142325      0.17963307      0.80507176
H       6.52239303     -0.41122346      1.79046863
H       6.88494900     -1.17551423      0.23032649
