41
CC(=O)OCC(COC(C)=O)(COC(C)=O)COC(C)=O
C      -3.52736587      1.84329295      2.14953800
C      -2.71442551      0.59773484      1.97319273
O      -3.14200967     -0.53635450      2.13581490
O      -1.44428529      0.92139500      1.60173767
C      -0.54357358     -0.17321476      1.35232016
C       0.14408252      0.00463242     -0.02076914
C      -0.90740406      0.13687549     -1.14626146
O      -1.78392653     -1.00477414     -1.14290154
C      -3.12228803     -0.75026160     -1.14280073
C      -3.88631316     -2.03767184     -1.09567977
O      -3.63657705      0.35884573     -1.17267674
C       1.00555101      1.28733801      0.01251876
O       1.68939266      1.45223088     -1.24079328
C       2.54509914      2.51166681     -1.27883003
C       3.20588166      2.58873581     -2.62065039
O       2.75030049      3.28881110     -0.35814912
C       1.02657080     -1.23256861     -0.30216970
O       2.04093355     -1.35242912      0.70896076
C       2.92097326     -2.37196391      0.50374452
C       3.93611322     -2.40217343      1.60447433
O       2.89629251     -3.14877497     -0.43948527
H      -4.54363040      1.57303266      2.45029423
H      -3.57733589      2.38971521      1.20435398
H      -3.08654304      2.46607848      2.93190975
H       0.19754750     -0.15984256      2.15997078
H      -1.04881682     -1.14471892      1.40093252
H      -0.42125478      0.15616070     -2.12861687
H      -1.45580242      1.08048832     -1.04461600
H      -4.95836469     -1.82207531     -1.07373181
H      -3.66726450     -2.63130416     -1.98661809
H      -3.62470268     -2.59079769     -0.19009815
H       1.74374605      1.23147946      0.82244999
H       0.37451067      2.16902713      0.18059318
H       3.78646983      1.68041208     -2.80023022
H       2.45024335      2.72315663     -3.39870336
H       3.88415598      3.44651883     -2.64183682
H       0.41958394     -2.14655945     -0.29357184
H       1.50569007     -1.14529470     -1.28547387
H       4.60998890     -3.25015271      1.45273713
H       4.52346801     -1.48082158      1.59120437
H       3.43528890     -2.52587458      2.56791642
