22
N#CCCCCCCC#N
N       4.19548722     -1.69707321      0.14180138
C       3.71597303     -0.64257151      0.20819171
C       3.10159562      0.68930071      0.29199562
C       1.76682897      0.75641956     -0.45248999
C       0.66471905     -0.06621879      0.22445506
C      -0.66471908      0.06621871     -0.52291477
C      -1.76682884     -0.75642063      0.15402938
C      -3.10159583     -0.68929991     -0.59045530
C      -3.71597296      0.64257222     -0.50664810
N      -4.19548686      1.69707382     -0.44025510
H       3.78715378      1.42403507     -0.14625247
H       2.96141520      0.97254417      1.34132437
H       1.44909655      1.80557034     -0.49800546
H       1.89719754      0.41721809     -1.48797098
H       0.95385187     -1.12295958      0.26260372
H       0.53826309      0.27281428      1.25985185
H      -0.95385184      1.12295954     -0.56106265
H      -0.53826330     -0.27281343     -1.55831188
H      -1.44909661     -1.80557156      0.19954223
H      -1.89719692     -0.41722158      1.18951121
H      -2.96141604     -0.97254118     -1.63978474
H      -3.78715364     -1.42403513     -0.15220827
