22
COS(=O)(=O)c1ccc(C(=O)O)cc1
C      -4.06409582      1.35723640     -0.40068739
O      -2.69473180      1.01982966     -0.50758320
S      -2.12984603     -0.11432186      0.51665742
O      -2.20402767      0.42814959      1.85890775
O      -2.74407900     -1.38206500      0.17947951
C      -0.41047272     -0.24976343      0.08458676
C      -0.05630248     -0.36491033     -1.26318851
C       1.29306750     -0.45834426     -1.61186688
C       2.28323573     -0.43430416     -0.61846792
C       3.70183763     -0.53593064     -1.04044165
O       4.09756824     -0.63375635     -2.18697612
O       4.55747065     -0.50932922     -0.00404851
C       1.91513109     -0.31587079      0.72972874
C       0.56635167     -0.22217705      1.08409261
H      -4.29418781      2.11740399     -1.15184351
H      -4.28193045      1.76819855      0.58934243
H      -4.69110388      0.48070723     -0.58813520
H      -0.81829995     -0.38906982     -2.03936142
H       1.57217659     -0.55171337     -2.66044201
H       5.44007521     -0.58542099     -0.42416719
H       2.67166698     -0.29527788      1.51142658
H       0.29049633     -0.12927027      2.13281370
