26
COC(=O)CCCCC(=O)OC
C       4.51521225     -1.40342058     -0.54221920
O       3.73802500     -0.26547029     -0.91719214
C       2.75734731      0.05327801     -0.02557715
O       2.53940664     -0.53892560      1.02181424
C       2.00643695      1.27091310     -0.51515167
C       0.68490827      1.49144342      0.22141851
C      -0.38497407      0.47339918     -0.18370154
C      -1.68748283      0.70189160      0.58195903
C      -2.75949049     -0.28164738      0.17415853
O      -2.68262418     -1.07046120     -0.75688680
O      -3.83956462     -0.14035788      0.99465399
C      -4.91788140     -1.02611828      0.69127794
H       3.88108778     -2.29196653     -0.46227133
H       5.25884550     -1.57846296     -1.32459730
H       5.04064595     -1.21487635      0.39920238
H       1.81879372      1.16972246     -1.58998148
H       2.65702722      2.13806652     -0.35542551
H       0.32036328      2.49934249     -0.01219810
H       0.84434214      1.45348817      1.30579046
H      -0.02977778     -0.54728971      0.00178543
H      -0.57161693      0.54888921     -1.26232605
H      -2.06362509      1.71285532      0.39049041
H      -1.50425296      0.58602125      1.65620565
H      -5.29884491     -0.83472399     -0.31677115
H      -5.72282243     -0.83744274      1.40697922
H      -4.59948432     -2.06814727      0.79516541
