21
CN(C)c1nc2ncncc2[nH]1
C       2.56731340      0.83452628     -1.09447394
N       1.80504641      0.56571278      0.12902288
C       2.54637813     -0.17654047      1.14543657
C       0.49210915      0.26532254     -0.07409302
N      -0.15253178      0.17150058     -1.21712056
C      -1.44753785     -0.11711288     -0.88860812
N      -2.45413366     -0.31198031     -1.76079738
C      -3.62003319     -0.57066504     -1.15233264
N      -3.86999849     -0.65016267      0.17423092
C      -2.84368339     -0.44914787      1.02621466
C      -1.60920439     -0.18178429      0.48202212
N      -0.36702600      0.07525414      0.98330968
H       2.06444702      1.58203408     -1.71915193
H       3.55475794      1.24048239     -0.84824504
H       2.70917253     -0.08191232     -1.67864996
H       2.08246601     -0.08143098      2.13277602
H       2.60934176     -1.23902765      0.88480833
H       3.56639243      0.21220780      1.24095576
H      -4.47120152     -0.73706564     -1.80580116
H      -3.04873536     -0.50997599      2.08662779
H      -0.11333916      0.15976553      1.95386901
