27
CC(C)CCCCCO
C      -2.82355534     -1.05123482      0.40834491
C      -2.40924004      0.38608610      0.08996203
C      -3.51816145      1.07816669     -0.70662994
C      -1.08371180      0.45759811     -0.69063455
C       0.11653362     -0.08073715      0.09400510
C       1.42180271      0.12980190     -0.67723464
C       2.62006291     -0.41046780      0.10030871
C       3.92288182     -0.20374817     -0.66097463
O       5.00806876     -0.73524936      0.08732093
H      -2.11065690     -1.53110329      1.08547351
H      -2.89089601     -1.65605783     -0.50224295
H      -3.80167759     -1.07309013      0.90113001
H      -2.28934851      0.92671299      1.03737859
H      -3.25911420      2.12301958     -0.90802866
H      -3.68851670      0.57944607     -1.66690692
H      -4.46075822      1.07129215     -0.14900407
H      -0.88770544      1.50419140     -0.95753637
H      -1.17850148     -0.09422529     -1.63462264
H       0.17854881      0.42570276      1.06467530
H      -0.01187656     -1.15076641      0.29108408
H       1.35819322     -0.37243070     -1.65022768
H       1.56456985      1.19934828     -0.87383081
H       2.68823349      0.07982786      1.07942570
H       2.48789412     -1.47947642      0.30876966
H       4.11426999      0.85866462     -0.84302322
H       3.89580699     -0.71793913     -1.62668938
H       5.03685394     -0.26333202      0.93704786
