33
O=C1CCOc2cc(OCc3ccccc3)ccc21
O       4.98747257     -2.06712072     -1.13051559
C       4.50892358     -1.07943800     -0.58341623
C       5.35106226      0.07465030     -0.11731568
C       4.67047723      0.71073811      1.07669090
O       3.36299434      1.18982158      0.74449186
C       2.55752540      0.20581982      0.22994236
C       1.17926577      0.40577617      0.34375866
C       0.29240410     -0.55282913     -0.15103983
O      -1.07232835     -0.49016806     -0.09884847
C      -1.65117658      0.66622293      0.50554160
C      -3.15483763      0.55602562      0.42144561
C      -3.94295301      0.58105955      1.58060204
C      -5.33398605      0.49614616      1.49291164
C      -5.95077740      0.38736994      0.24787562
C      -5.17831857      0.36238802     -0.91145702
C      -3.78790666      0.44738841     -0.82592507
C       0.79595699     -1.70451760     -0.76686786
C       2.17201121     -1.89867928     -0.90142587
C       3.05014746     -0.93446562     -0.40670449
H       5.44697794      0.78186545     -0.94780850
H       6.34189161     -0.29204187      0.16748405
H       5.25475769      1.57192769      1.41777288
H       4.59489654      0.01493448      1.92289298
H       0.83422999      1.31202684      0.82975682
H      -1.34312694      1.57730277     -0.02273867
H      -1.33982560      0.73040782      1.55530837
H      -3.48033916      0.66280393      2.56145030
H      -5.93694339      0.51280474      2.39710166
H      -7.03332614      0.31911750      0.18119646
H      -5.65760115      0.27373324     -1.88282131
H      -3.19425596      0.42125544     -1.73755715
H       0.10696910     -2.45301796     -1.15333742
H       2.54973883     -2.78930827     -1.39850163
