12
O=c1cc[nH]c(=S)[nH]1
O      -1.41370791     -2.24249940     -0.07630265
C      -0.76717612     -1.20248705     -0.04108599
C      -1.43868111      0.11342335     -0.02438277
C      -0.69067589      1.21904695      0.01419073
N       0.67589244      1.14596917      0.03812208
C       1.35937580     -0.03857351      0.02456364
S       3.01981382     -0.08773330      0.05452267
N       0.60215262     -1.17496425     -0.01486655
H      -2.51971730      0.12464748     -0.04434945
H      -1.12706995      2.21265472      0.02812466
H       1.22747009      1.99866531      0.06739810
H       1.07232350     -2.06814948     -0.02593447
