19
CCCCOC(N)=O
C       2.83052730     -0.94077662     -0.35956356
C       1.44297140     -0.62368170      0.17581480
C       0.95616577      0.74403719     -0.30849420
C      -0.42151429      1.09614814      0.24686729
O      -1.38269639      0.15854170     -0.25319745
C      -2.64053884      0.36989475      0.19211518
N      -3.47236933     -0.55943285     -0.32633946
O      -3.00487647      1.25538872      0.94791931
H       3.55945275     -0.19491299     -0.02687397
H       3.16011256     -1.92100735     -0.00116320
H       2.83354049     -0.96049073     -1.45406283
H       0.74922063     -1.40862283     -0.14616537
H       1.46794879     -0.64218298      1.27157391
H       0.91351799      0.73764726     -1.40448546
H       1.67154105      1.51819101     -0.00769180
H      -0.40577521      1.06581843      1.34285694
H      -0.69598682      2.10481062     -0.08354931
H      -3.11067459     -1.26734353     -0.94551224
H      -4.45056679     -0.53202623     -0.08344111
