24
CNC(=O)CSP(=S)(OC)OC
C       2.68606698      0.74846211      1.18973718
N       2.05764238     -0.53761544      1.01149637
C       1.90607234     -1.07484479     -0.25041483
O       2.35503679     -0.54793216     -1.26491230
C       1.10899693     -2.36733101     -0.29006468
S      -0.47086010     -2.11836018     -1.14142585
P      -1.30056747     -0.43174779     -0.18855379
S      -1.43451012     -0.50967984      1.76071802
O      -2.73177376     -0.17116968     -0.91512992
C      -3.54090355      0.91054116     -0.49335847
O      -0.48699213      0.89118221     -0.65940193
C      -0.38174910      1.20943409     -2.03324506
H       1.97515081      1.52952399      0.91002259
H       2.96115107      0.85664785      2.24086573
H       3.57876562      0.82320769      0.56261500
H       1.43594468     -0.84738639      1.75207451
H       1.69921341     -3.11844376     -0.82353545
H       0.92351109     -2.74633839      0.71912887
H      -4.21618095      1.17649533     -1.31098776
H      -4.14087559      0.61041940      0.36937020
H      -2.93742597      1.78663340     -0.24150896
H      -0.19662674      0.32471450     -2.64533373
H       0.45086238      1.90496143     -2.16521411
H      -1.29994900      1.69862628     -2.36760532
