33
CNC(=O)C(C)(C(C)C)C(C)C
C       3.50933171     -0.62975619     -0.71740326
N       2.07376468     -0.59417283     -0.84820815
C       1.31011927      0.22856183     -0.04480348
O       1.84071780      0.97069985      0.77869305
C      -0.23645807      0.09186841     -0.18888359
C      -0.60909671     -0.21743896     -1.66503330
C      -0.73155349     -1.06621168      0.76927471
C      -0.06496993     -2.43537120      0.54840511
C      -2.25431632     -1.27829418      0.73223618
C      -0.92829588      1.48026971      0.17774072
C      -0.90667090      1.86983224      1.66512550
C      -0.40981607      2.66944555     -0.65237040
H       3.76536832     -1.19737425      0.18114601
H       3.92633737     -1.12278387     -1.59849074
H       3.90802451      0.38492433     -0.63460554
H       1.63208108     -1.35974594     -1.33591551
H      -0.38616233     -1.24903473     -1.95072792
H      -0.05577995      0.42091899     -2.36267397
H      -1.67770401     -0.06316075     -1.85062539
H      -0.46444670     -0.78691464      1.79657062
H       1.01130055     -2.39535301      0.73575989
H      -0.46955345     -3.17370303      1.25085567
H      -0.23382816     -2.82337817     -0.45953581
H      -2.55227180     -2.04383124      1.45787329
H      -2.59031757     -1.61411850     -0.25388605
H      -2.80490304     -0.37087905      0.99172401
H      -1.99127890      1.39006819     -0.08530264
H      -1.40768809      1.12732605      2.29127435
H      -1.44505618      2.81298892      1.81600171
H       0.10553541      2.01509661      2.04865600
H      -0.97670281      3.57659761     -0.41307922
H      -0.52984137      2.49926565     -1.72563219
H       0.64413101      2.88365828     -0.45415966
