30
CCC(C)(C#N)N=NC(C)(C#N)CC
C      -2.49084583      1.81662567     -0.76377128
C      -2.71565365      0.30867207     -0.67188346
C      -1.72638233     -0.44124891      0.25072574
C      -2.03697709     -1.94437892      0.19555710
C      -1.83078400      0.05415600      1.64168354
N      -1.93203972      0.44722018      2.73022208
N      -0.35435425     -0.17507274     -0.25383718
N       0.54919389     -0.84812590      0.29199315
C       1.91887184     -0.55359568     -0.19696517
C       1.99738492     -0.78981720     -1.71349802
C       2.80373043     -1.53105406      0.47778510
N       3.51216238     -2.29684150      0.98905395
C       2.33279732      0.89337364      0.14742341
C       2.24585793      1.24966095      1.62927628
H      -1.49392708      2.05139633     -1.14909831
H      -3.22316378      2.25972042     -1.44676743
H      -2.60999535      2.30253253      0.20914827
H      -3.74527993      0.13620841     -0.33161155
H      -2.64687902     -0.10197098     -1.68793368
H      -1.39216818     -2.52031575      0.87003817
H      -3.07273939     -2.14652723      0.49298387
H      -1.89092278     -2.34047813     -0.81590509
H       3.02453697     -0.67835288     -2.08059381
H       1.65990828     -1.79981354     -1.97632896
H       1.36975110     -0.08146411     -2.26598341
H       1.70244348      1.60074105     -0.40685700
H       3.36365108      1.07060389     -0.18689733
H       2.90877994      0.62406433      2.23429453
H       1.22589822      1.14230023      2.00923069
H       2.54714459      2.29178183      1.77851579
