26
O=c1[nH]c(Nc2ccccc2)nc2[nH]cnc12
O       1.92925025     -2.86665534      0.75034766
C       1.93741491     -1.69734195      0.37978185
N       0.83246066     -1.10146775     -0.21077818
C       0.77081595      0.21363272     -0.66033041
N      -0.38857788      0.64021010     -1.24889468
C      -1.70758421      0.39274206     -0.81300174
C      -2.75775352      0.62438931     -1.71370580
C      -4.08468927      0.38168609     -1.35041700
C      -4.38059749     -0.09454224     -0.07652279
C      -3.35100245     -0.32387240      0.83237925
C      -2.02354554     -0.08154562      0.46627651
N       1.78849463      1.03905352     -0.58506817
C       2.87728132      0.49246487     -0.00055887
N       4.06237308      1.12519081      0.22503551
C       4.89263725      0.22010053      0.83553709
N       4.30815632     -0.94822593      1.01079087
C       3.04993114     -0.78057323      0.48883255
H       0.03549709     -1.70137085     -0.35190209
H      -0.29868802      1.57913994     -1.62666267
H      -2.54641448      0.98430687     -2.71832124
H      -4.88517404      0.56148412     -2.06360561
H      -5.41228278     -0.28356305      0.20940719
H      -3.58001435     -0.68575707      1.83199132
H      -1.25072903     -0.24112883      1.21387569
H       4.27813873      2.08113463     -0.01574688
H       5.90460172      0.47050871      1.12571944
