38
CCC(CC)(C(=O)O)C(CC)(CC)C(=O)O
C      -1.59030156     -0.38071498     -2.43345359
C      -1.52238367      0.60484273     -1.27133934
C      -0.76258571      0.22562526      0.06041590
C      -0.74310890      1.54789784      0.92976758
C      -2.07349129      2.28696900      1.09543454
C      -1.63098091     -0.85094662      0.74248184
O      -2.11973743     -1.83585188      0.21121744
O      -1.86045804     -0.65377386      2.05191361
C       0.74516084     -0.31426202     -0.14126078
C       1.50888564      0.61467526     -1.17233277
C       2.99413465      0.31819865     -1.39463307
C       1.63806585     -0.33178788      1.16053862
C       1.12341036     -0.93618923      2.46403710
C       0.74754056     -1.73243224     -0.74635515
O       0.88759874     -2.02526434     -1.92313770
O       0.57552154     -2.72053407      0.14623646
H      -2.34366919     -0.03651077     -3.15179622
H      -0.65199254     -0.43375359     -2.98653314
H      -1.87928641     -1.38714837     -2.12751402
H      -1.11695177      1.54665546     -1.66369807
H      -2.57039190      0.81419867     -1.01605193
H      -0.04117213      2.26729522      0.49538348
H      -0.37016092      1.34595619      1.93599203
H      -2.87372389      1.62944245      1.44433561
H      -2.39094174      2.75757624      0.16016527
H      -1.95802950      3.08968903      1.83189675
H      -2.40269463     -1.42826260      2.31197179
H       1.44077545      1.66055101     -0.85597244
H       1.03350822      0.56760986     -2.15547173
H       3.59129772      0.56372370     -0.51163628
H       3.37224956      0.93514940     -2.21709287
H       3.17146147     -0.72799272     -1.65721977
H       2.55945586     -0.88473422      0.93085657
H       1.95559797      0.69437568      1.38886236
H       1.96625343     -1.06817141      3.15290526
H       0.65994347     -1.91520703      2.34061333
H       0.42093505     -0.27918659      2.97747091
H       0.51026575     -3.52770724     -0.40699758
