37
CC(C)(C)C(=O)C(Oc1ccc(Cl)cc1)n1ccnc1
C      -3.33836123     -0.74113184      0.70626815
C      -1.88424038     -0.76475834      0.19053301
C      -1.93773917     -0.86710255     -1.33721788
C      -1.18272381     -2.00216283      0.76711500
C      -1.16779724      0.50118591      0.71847168
O      -1.51682864      1.01629024      1.79109750
C       0.01850308      1.11879293     -0.03887920
O       0.97690937      0.17516806     -0.49966371
C       1.95605085     -0.22688451      0.36564851
C       2.99537397     -0.94501175     -0.23514252
C       4.05799692     -1.43454023      0.52765706
C       4.07862086     -1.21074318      1.90061571
Cl      5.38159888     -1.81193241      2.84776693
C       3.04429225     -0.50505157      2.51142055
C       1.98001986     -0.01417404      1.74567865
N      -0.45005724      1.92962932     -1.17097142
C      -0.03781262      1.87654890     -2.47642143
C      -0.75809658      2.85441836     -3.12062120
N      -1.57780633      3.51090225     -2.24165997
C      -1.35829403      2.95110088     -1.07426204
H      -3.90428879     -1.60828036      0.34715121
H      -3.85902502      0.16342881      0.37073859
H      -3.37843104     -0.75542502      1.80169165
H      -2.43097232      0.00532032     -1.77816392
H      -2.50217559     -1.75301812     -1.65178881
H      -0.94162492     -0.95546006     -1.78028204
H      -1.05746700     -1.91963557      1.85281673
H      -0.18858831     -2.14191115      0.33276879
H      -1.75603390     -2.91386496      0.56394977
H       0.50132336      1.86250804      0.61085593
H       2.98180725     -1.12457491     -1.30816095
H       4.85995991     -1.98715270      0.04553624
H       3.05643423     -0.33597491      3.58570189
H       1.19158992      0.51485156      2.27298006
H       0.70213440      1.17324339     -2.83297002
H      -0.72579895      3.12387891     -4.16862065
H      -1.82845201      3.24152313     -0.14163784
