38
CC(C)(C)[C@H](O)[C@H](Oc1ccc(Cl)cc1)n1cncn1
C      -3.48215756     -1.74687649     -0.55002525
C      -2.56310750     -0.51794217     -0.34456987
C      -3.22472969      0.36202284      0.73144490
C      -2.50986203      0.26052634     -1.67024989
C      -1.14603618     -1.03148962      0.06404914
O      -1.22539532     -1.72347762      1.32506141
C       0.04287538     -0.02809166      0.05778256
O       1.21599062     -0.80194434      0.40777955
C       2.42117155     -0.46053433     -0.13751061
C       3.41098634     -1.44103845     -0.00895543
C       4.69631676     -1.22857550     -0.51330298
C       4.99721308     -0.02485351     -1.14258695
Cl      6.57674643      0.24518507     -1.76612137
C       4.02399148      0.96393180     -1.26442455
C       2.73620045      0.74825478     -0.75908976
N      -0.08224726      1.07382287      0.99272902
C      -0.06768855      1.03497049      2.35374881
N      -0.14470465      2.25595457      2.83132854
C      -0.19200293      3.02514453      1.70575156
N      -0.14931968      2.35266493      0.55203930
H      -3.07868980     -2.41875097     -1.31608671
H      -4.48440409     -1.44403380     -0.87487386
H      -3.59710180     -2.32268509      0.37493953
H      -3.22072931     -0.12360445      1.71281372
H      -2.73469595      1.33278157      0.82836022
H      -4.27102753      0.56954021      0.47626672
H      -3.51722043      0.51438108     -2.02013345
H      -2.02555170     -0.33031750     -2.45563458
H      -1.96009757      1.20129188     -1.56676143
H      -0.87062860     -1.81443907     -0.65767678
H      -0.36946519     -2.17474648      1.45508569
H       0.13889367      0.37979289     -0.95496420
H       3.18322895     -2.38192201      0.48687323
H       5.45298104     -2.00134891     -0.40837411
H       4.26026201      1.91082998     -1.74390571
H       2.02086442      1.55928967     -0.85608720
H      -0.00274963      0.12076676      2.92715184
H      -0.25810922      4.10551971      1.72812896
