30
ON=C(C(=NO)c1ccccc1)c1ccccc1
O      -0.70126590     -2.83522766     -1.12074295
N       0.52648059     -2.16475939     -1.07070344
C       0.52294023     -1.21046766     -0.17878921
C      -0.71402556     -0.91113001      0.65626393
N      -0.84569989     -1.37969257      1.86841223
O       0.25109490     -2.16331522      2.24571869
C      -1.76837399     -0.02844020      0.07017255
C      -2.87437841      0.33070325      0.85404327
C      -3.86551237      1.16899438      0.33854737
C      -3.76007466      1.65426429     -0.96316605
C      -2.66639266      1.30056763     -1.75139553
C      -1.67251423      0.46211613     -1.23874891
C       1.73374543     -0.35596579      0.01633267
C       2.85389162     -0.55810804     -0.80286963
C       3.99220166      0.23765284     -0.65511938
C       4.02078087      1.24039557      0.31170802
C       2.91385695      1.44713965      1.13300382
C       1.77292782      0.65291324      0.98779361
H      -0.51248793     -3.57750575     -1.72399981
H      -0.03795663     -2.53460052      3.09960743
H      -2.97393043     -0.04026087      1.87180548
H      -4.71978848      1.44014293      0.95372676
H      -4.53281138      2.30472655     -1.36532165
H      -2.58777320      1.67375358     -2.76967336
H      -0.84012949      0.19591212     -1.88474598
H       2.84983615     -1.33750695     -1.56173942
H       4.85596866      0.07183007     -1.29400754
H       4.90773445      1.85816310      0.42843684
H       2.93891899      2.22518556      1.89218217
H       0.93273691      0.83251975      1.65326800
