14
Nc1cc(Cl)c(Cl)cc1Cl
N      -2.29818585      0.52577535      0.25694013
C      -0.95195112      0.17910457      0.05376110
C      -0.07741492      1.13273213     -0.47971498
C       1.29434589      0.87129998     -0.58203141
Cl      2.29391658      2.09347815     -1.28470281
C       1.81128436     -0.34157850     -0.11436645
Cl      3.49174229     -0.73097873     -0.21096241
C       0.95966602     -1.28277066      0.46563092
C      -0.40669318     -1.01343790      0.56442014
Cl     -1.42511384     -2.20058697      1.30305377
H      -2.68355147      1.17513884     -0.42167453
H      -2.90035814     -0.28026287      0.41817763
H      -0.46598982      2.09153855     -0.81538620
H       1.35830319     -2.21945195      0.84685508
