30
CC(=O)CC(=O)OCCOC(=O)CC(C)=O
C      -5.46221831     -0.50865119     -0.36547186
C      -5.14265850      0.81391405      0.28299701
O      -5.96290336      1.37813160      1.00949964
C      -3.80415982      1.43837904     -0.00596507
C      -2.63767474      0.63695789      0.48346016
O      -2.69639627     -0.47613583      0.98326572
O      -1.48294020      1.32539319      0.25751510
C      -0.27949520      0.69490195      0.72591862
C       0.22414544     -0.35255125     -0.26483611
O       1.43594147     -0.97004048      0.19868058
C       2.58284783     -0.27380387     -0.04353396
O       2.63295334      0.80693141     -0.61084177
C       3.75796243     -1.04601987      0.47080973
C       5.06380611     -0.30571940      0.36650169
C       5.62342080     -0.05476075     -1.01035123
O       5.66552849      0.06600451      1.37555801
H      -6.54740998     -0.64123535     -0.40188693
H      -5.08388209     -0.52212149     -1.39087664
H      -5.02197389     -1.32578707      0.20904538
H      -3.71969683      1.58090124     -1.08806356
H      -3.77774455      2.42000810      0.48041923
H       0.46684979      1.48600742      0.85418852
H      -0.42426113      0.26105783      1.72335626
H       0.35638184      0.07749357     -1.26559406
H      -0.51607690     -1.15070038     -0.38362248
H       3.58621871     -1.27872648      1.52780596
H       3.84826589     -1.98602666     -0.08272491
H       6.66926965      0.25465300     -0.92655589
H       5.58508247     -0.97540904     -1.59813279
H       5.06081748      0.73548423     -1.51056436
