34
COc1ccc(C(=O)c2cccc(C)c2)cc1C
C      -5.63485123     -0.05395410     -0.24104776
O      -4.51216124     -0.54115725      0.48274071
C      -3.27912820     -0.05372090      0.13635560
C      -3.04322873      0.86389076     -0.89196877
C      -1.74353710      1.29881108     -1.16764057
C      -0.66538988      0.81129012     -0.42546974
C       0.69697127      1.30873178     -0.74505253
O       0.83531156      2.46463338     -1.13762435
C       1.89433173      0.44216115     -0.60255356
C       1.85167419     -0.92366474     -0.90335446
C       3.00451183     -1.69878171     -0.77377184
C       4.20005278     -1.11278437     -0.35331608
C       4.25691707      0.25451593     -0.05646568
C       5.55316391      0.89347206      0.34591006
C       3.10024462      1.03153312     -0.20197493
C      -0.89551379     -0.08945882      0.61953582
C      -2.19845349     -0.53397583      0.90067690
C      -2.42717127     -1.50530183      2.02691732
H      -6.52951851     -0.53231028      0.16906964
H      -5.74826954      1.02766010     -0.11366992
H      -5.56916528     -0.32461837     -1.29996215
H      -3.84818813      1.26645746     -1.49798854
H      -1.57484467      2.02102367     -1.96439441
H       0.93810689     -1.39287812     -1.25884854
H       2.97627799     -2.75929786     -1.01233239
H       5.09288042     -1.72922118     -0.26828720
H       6.08935301      1.24300709     -0.54167896
H       5.37836868      1.74435578      1.01273068
H       6.18769745      0.18302190      0.88610926
H       3.13318305      2.10187498     -0.00341796
H      -0.06884108     -0.43906049      1.23379507
H      -1.48472373     -1.80379492      2.49808574
H      -2.91043129     -2.41373180      1.65289057
H      -3.05562929     -1.04872779      2.79831957
