20
CNC(=O)O/N=C(\C)SC
C       3.59602760      1.51091217     -0.39827690
N       2.57474821      0.49977398     -0.37698798
C       1.26303455      0.80718302     -0.12151426
O       0.83816056      1.94862064      0.00501882
O       0.53214905     -0.35144220     -0.02235795
N      -0.81572553     -0.05906829      0.25933719
C      -1.53119222     -1.13541249      0.32711113
C      -1.00453828     -2.53298093      0.13225928
S      -3.25205404     -1.02580494      0.66996132
C      -3.46023515      0.76520869      0.79097918
H       4.46104638      1.12058700     -0.93924455
H       3.22754264      2.41673459     -0.88715074
H       3.87876907      1.74342425      0.63177956
H       2.82818231     -0.47583884     -0.32170145
H      -0.56676874     -2.61911214     -0.86685759
H      -0.22935034     -2.73510450      0.87759463
H      -1.78676659     -3.29013847      0.23315315
H      -4.50975408      0.98826228      1.00177908
H      -3.18935174      1.25182980     -0.15006700
H      -2.85392368      1.17236640      1.60482077
