20
Cc1cc(C)cc(C(=O)Cl)c1
C      -1.50270026     -2.28622416      0.72811274
C      -0.76296326     -1.04477970      0.32101187
C       0.58192401     -1.11862108     -0.06294795
C       1.29027204      0.03375409     -0.42245583
C       2.73798580     -0.05233686     -0.80805110
C       0.64710442      1.27658874     -0.35985821
C      -0.69610307      1.37397746      0.03685134
C      -1.33904779      2.72903021      0.08730943
O      -0.64440448      3.69702425     -0.22050881
Cl     -3.01654244      2.88407346      0.57041683
C      -1.39354304      0.20677605      0.37889418
H      -1.12149546     -3.16198877      0.19246391
H      -1.39013363     -2.45241745      1.80383658
H      -2.56852493     -2.20048975      0.49178201
H       1.08310072     -2.08546647     -0.08409362
H       3.36830008      0.04945748      0.08067181
H       2.95758167     -1.01069994     -1.29025203
H       2.99975754      0.73667311     -1.52088667
H       1.20132829      2.17792436     -0.62049376
H      -2.43189618      0.24774495      0.69819728
