59
CCCCCCCCCCCCCCCCCCC(=O)O
C      10.00762255     -0.75374788     -0.27084788
C       8.63577750     -1.38928939     -0.11071966
C       7.51776697     -0.39333316     -0.41757383
C       6.13953090     -1.03699726     -0.25576753
C       5.01948366     -0.03873340     -0.55843719
C       3.64237131     -0.68416852     -0.38829367
C       2.48211625      0.23391560     -0.78717011
C       2.31745220      1.44120874      0.13926858
C       1.15961009      2.36285870     -0.25985458
C      -0.23614472      1.72954144     -0.27249749
C      -0.66322208      1.16941499      1.08636636
C      -2.07042759      0.56094019      1.07719551
C      -3.17689848      1.59420053      0.84899975
C      -4.58471459      1.03491313      1.07926726
C      -4.97493382     -0.05816427      0.08185216
C      -6.42708042     -0.49910874      0.28364615
C      -6.81449628     -1.60257389     -0.70576631
C      -8.25276168     -2.08172887     -0.51231886
C      -9.27359698     -1.08428867     -0.99215086
O      -9.08536697     -0.10139907     -1.68757440
O     -10.51765058     -1.40482347     -0.58422552
H      10.12852656      0.09519754      0.40939897
H      10.15793907     -0.39789721     -1.29497118
H      10.79196482     -1.48318202     -0.04613738
H       8.55928000     -2.25344269     -0.78072016
H       8.53040387     -1.76314694      0.91432020
H       7.60116805      0.47035830      0.25338188
H       7.63018974     -0.01846585     -1.44219828
H       6.05597453     -1.89884971     -0.92893854
H       6.02805970     -1.41399757      0.76815595
H       5.12716512      0.33355281     -1.58425335
H       5.11804387      0.82154024      0.11251792
H       3.51158059     -1.01196753      0.65019600
H       3.59233492     -1.58548911     -1.01206115
H       2.62024044      0.57448577     -1.82042136
H       1.56618437     -0.36752850     -0.77025594
H       3.23311941      2.04330280      0.12319093
H       2.19082171      1.10317109      1.17392740
H       1.15049305      3.22010538      0.42527892
H       1.36190041      2.77091004     -1.25828434
H      -0.28595639      0.94176368     -1.03238968
H      -0.94298022      2.50532713     -0.58827031
H      -0.60772949      1.95695932      1.84739816
H       0.03422585      0.38162144      1.39280212
H      -2.23441919      0.06882737      2.04380950
H      -2.11789607     -0.22038061      0.31017261
H      -3.02850619      2.43742416      1.53473950
H      -3.11493938      1.99663886     -0.16831571
H      -5.29847947      1.86441955      1.00019892
H      -4.66377805      0.64786049      2.10253092
H      -4.84355119      0.31347336     -0.94158382
H      -4.31704769     -0.92640714      0.20050682
H      -6.55926245     -0.86413897      1.30950304
H      -7.08974187      0.36534683      0.16137243
H      -6.66783413     -1.24857472     -1.73335806
H      -6.14236189     -2.45774571     -0.56337471
H      -8.40434428     -3.00222112     -1.08686644
H      -8.43468312     -2.29806756      0.54602434
H     -11.08054226     -0.69941991     -0.96696981
