17
Cc1ncnc2nccnc12
C      -2.11023393     -1.11111059     -0.72732388
C      -1.24018105      0.05976630     -0.36834361
N      -1.83571633      1.27611032     -0.38172769
C      -1.05458138      2.31006393     -0.06142469
N       0.23713375      2.24081686      0.26340088
C       0.79703883      1.03360250      0.26865694
N       2.09288727      0.96142093      0.59420895
C       2.67727127     -0.25729398      0.60444967
C       1.98742115     -1.40689359      0.29435371
N       0.68354731     -1.37664529     -0.03809550
C       0.09453083     -0.14513003     -0.04805627
H      -1.71750814     -1.62043294     -1.61299499
H      -3.13028342     -0.78248428     -0.95231223
H      -2.16054360     -1.81840638      0.10649780
H      -1.51024156      3.29455497     -0.06546605
H       3.72759621     -0.27666841      0.87282464
H       2.46186277     -2.38127032      0.30440182
