22
CN(C)c1cnc2cncnc2n1
C      -2.84632827     -0.69438010      0.86027488
N      -2.10897807     -0.03711633     -0.21900749
C      -2.43896075      1.37902026     -0.39781585
C      -0.72058512     -0.28055092     -0.18811586
C      -0.21406705     -1.58146913     -0.17670523
N       1.10592283     -1.87539723     -0.15374837
C       1.92809399     -0.80052427     -0.16425736
C       3.29995114     -0.91542167     -0.14789549
N       4.16573698      0.12005352     -0.15810656
C       3.59754043      1.32828835     -0.18811577
N       2.28384216      1.57483642     -0.20566286
C       1.46381679      0.52272237     -0.19462139
N       0.14687398      0.75831515     -0.20914432
H      -2.47899837     -0.37872343      1.84378953
H      -2.78757171     -1.78531785      0.79004587
H      -3.91051164     -0.43889146      0.80090201
H      -3.52200823      1.49584234     -0.51841659
H      -2.13227627      1.98004158      0.46642367
H      -1.97938633      1.78434879     -1.30692965
H      -0.87146481     -2.44318840     -0.20880045
H       3.75923105     -1.89981412     -0.12537833
H       4.26012728      2.18732613     -0.19871440
