34
Cc1cc(C(C)(C)C)cc(C)c1CC#N
C       1.71698908      2.60086540     -0.93124058
C       1.15617096      1.30432385     -0.40319560
C      -0.24133735      1.12714304     -0.43098517
C      -0.85524327     -0.04202170      0.03713348
C      -2.37997587     -0.25194608      0.01141069
C      -2.72014524     -1.48074738     -0.85966966
C      -3.16869023      0.94652622     -0.56376961
C      -2.89641080     -0.48824437      1.44748384
C      -0.01223114     -1.04768340      0.53925182
C       1.38709927     -0.90765985      0.58356359
C       2.19793436     -2.04883276      1.14254686
C       1.98514296      0.28857964      0.12704295
C       3.49312006      0.46567806      0.17293810
C       4.16274889     -0.00943821     -1.04769143
N       4.71828818     -0.37635996     -1.99925874
H       2.49486186      2.41030378     -1.67689131
H       0.94612819      3.20418557     -1.42276403
H       2.13001833      3.19503575     -0.11014980
H      -0.84528295      1.93548613     -0.83638984
H      -3.80408887     -1.63208855     -0.92359618
H      -2.33966930     -1.35777699     -1.88065365
H      -2.29139244     -2.40549389     -0.45833030
H      -3.00502146      1.85699303      0.02449164
H      -4.24745325      0.74908967     -0.55765679
H      -2.88628088      1.15466918     -1.60237085
H      -2.47273916     -1.39261762      1.89762070
H      -2.64272809      0.35461878      2.10133232
H      -3.98643205     -0.60488698      1.46138450
H      -0.45103948     -1.97452194      0.90635975
H       1.57945476     -2.93588162      1.31716562
H       2.98552792     -2.34297175      0.44213549
H       2.64368641     -1.76137607      2.09988205
H       3.90594022     -0.05155886      1.04659250
H       3.74305041      1.51860989      0.34627766
