34
CC(=O)OC/C=C(\C)CCC=C(C)C
C       6.14762983      0.27146439      1.60147141
C       5.32647983      0.02593702      0.37291838
O       5.77867281     -0.02241030     -0.76217073
O       4.02006565     -0.13519645      0.71172359
C       3.15789699     -0.36322164     -0.40680560
C       1.76712788     -0.52054827      0.13220655
C       0.67622521      0.23274623     -0.11769424
C       0.66106841      1.46069715     -0.98882412
C      -0.65393662     -0.11230667      0.53131117
C      -1.67774820     -0.65765705     -0.47102823
C      -2.95772784     -1.05726670      0.21342214
C      -4.12404214     -0.38294461      0.23488711
C      -5.32607156     -0.95013550      0.94428911
C      -4.35812986      0.95914894     -0.40204796
H       7.19503008      0.40587424      1.31643240
H       5.80394536      1.18039933      2.10159802
H       6.07665877     -0.58807679      2.27265785
H       3.44666931     -1.29524544     -0.90710821
H       3.24681298      0.46077659     -1.11926836
H       1.66108798     -1.37696815      0.79766890
H       0.12061693      1.26189294     -1.91933904
H       1.65923659      1.81704239     -1.25173101
H       0.16216194      2.28610960     -0.46952035
H      -0.50464086     -0.84968162      1.33165688
H      -1.05107697      0.78402612      1.02573241
H      -1.86452308      0.06823239     -1.26830776
H      -1.27052943     -1.54619521     -0.97073269
H      -2.90337150     -2.01682518      0.72809285
H      -5.64399886     -0.27880012      1.74870464
H      -5.12256469     -1.92963309      1.38973129
H      -6.15744362     -1.07107780      0.24207062
H      -3.44731061      1.41864236     -0.79270897
H      -5.07034106      0.86459791     -1.22809236
H      -4.77392968      1.65660302      0.33320972
