56
COc1cc(-c2cc(OC)cc(C(C)(C)C)c2O)c(O)c(C(C)(C)C)c1
C      -2.19482280      4.03297126      2.20652414
O      -3.06728154      3.00941677      1.74396725
C      -2.50129883      1.97158866      1.05530072
C      -1.15214956      1.83126383      0.75360617
C      -0.69177138      0.71337021      0.03927574
C       0.75117931      0.60304853     -0.24705773
C       1.29805441      1.40215410     -1.26404123
C       2.64999462      1.32377570     -1.57553808
O       3.29536929      2.04563239     -2.54202718
C       2.50991000      2.94996068     -3.30887072
C       3.46928653      0.43830668     -0.86538744
C       2.97923843     -0.39008781      0.16466564
C       3.91796647     -1.35738096      0.92337673
C       5.39093243     -1.30191370      0.44004599
C       3.94870756     -1.01181303      2.42904528
C       3.45826940     -2.81959248      0.72834683
C       1.60179801     -0.28270010      0.45448666
O       1.08635299     -1.07920057      1.44562719
C      -1.62658828     -0.26680852     -0.36770382
O      -1.19692876     -1.37153772     -1.05866098
C      -3.00398812     -0.15838388     -0.07807909
C      -4.03452139     -1.22565550     -0.51561229
C      -3.70248871     -2.59151125      0.12595952
C      -4.05558537     -1.35850703     -2.05487099
C      -5.49008469     -0.89501061     -0.09332394
C      -3.40500904      0.98627652      0.64047820
H      -1.46060856      3.63539385      2.91498643
H      -1.70365848      4.54035277      1.36966491
H      -2.80071568      4.77451390      2.73604447
H      -0.42775962      2.57704802      1.06806623
H       0.63771248      2.07575852     -1.80258155
H       1.73376214      2.42002133     -3.87083821
H       3.17120084      3.43648482     -4.03231685
H       2.07699281      3.73118232     -2.67540088
H       4.51815671      0.41831428     -1.15065918
H       6.01960388     -2.00141505      1.00467636
H       5.82404522     -0.30394391      0.57590008
H       5.48050774     -1.57653713     -0.61756456
H       2.98497865     -1.16613661      2.92211502
H       4.67424001     -1.63767081      2.96233540
H       4.23423612      0.03513791      2.58598559
H       2.48058281     -3.02259343      1.17406487
H       4.16307875     -3.51958210      1.19281914
H       3.39246189     -3.07191992     -0.33667953
H       0.14229815     -0.88888938      1.57927116
H      -0.24176745     -1.31520230     -1.23134751
H      -4.47249705     -3.33559510     -0.11047108
H      -2.75272813     -3.00686555     -0.22214668
H      -3.64431211     -2.50886946      1.21777810
H      -4.25013428     -0.38969906     -2.53008320
H      -4.84062077     -2.05172163     -2.37993434
H      -3.11606384     -1.74102542     -2.46314250
H      -5.83561315      0.04685189     -0.53546348
H      -6.18556609     -1.67612568     -0.42423012
H      -5.58883183     -0.82215012      0.99613392
H      -4.44752215      1.14722088      0.90348544
