24
CC(C)C(O)C(C)C
C       1.68735067      1.30889682      0.44725523
C       1.28731575      0.04626763     -0.31793525
C       2.46571743     -0.93795380     -0.32332180
C       0.01879378     -0.62583447      0.26328949
O      -0.29803939     -1.78282107     -0.51638546
C      -1.23139625      0.28215230      0.37416497
C      -1.68326227      0.86455245     -0.96824077
C      -2.40044895     -0.48247123      1.00857471
H       1.81897278      1.10021216      1.51429356
H       2.63030479      1.71406036      0.06411711
H       0.93505841      2.09608176      0.34187385
H       1.10504249      0.31586518     -1.36567646
H       2.70400675     -1.27539513      0.69113587
H       2.24483489     -1.82025824     -0.93257542
H       3.36212057     -0.46801927     -0.74233649
H       0.25602665     -0.99409805      1.26966499
H      -0.38259172     -1.50639259     -1.44433846
H      -0.99787720      1.11872874      1.04350188
H      -2.56151355      1.50532495     -0.83164676
H      -1.95483164      0.07928055     -1.68089807
H      -0.90138269      1.48170908     -1.42013969
H      -2.11197590     -0.89646855      1.98050095
H      -2.73816414     -1.30764947      0.37275487
H      -3.25406127      0.18422989      1.17236714
