16
OCc1ccc(Cl)cc1Cl
O      -2.44209491      0.97502434      1.10344355
C      -2.01625724      0.03930098      0.11840580
C      -0.51184016     -0.01819019      0.00090073
C       0.31336930      0.78844749      0.80408989
C       1.70487169      0.73140816      0.69140534
C       2.28902117     -0.13448912     -0.22745509
Cl      4.00247402     -0.20451306     -0.36599159
C       1.49653665     -0.94398375     -1.03486299
C       0.10460902     -0.88485811     -0.92000236
Cl     -0.82621334     -1.91569064     -1.95119764
H      -3.41381463      0.94542629      1.11026193
H      -2.40381053     -0.94323331      0.40688584
H      -2.45180872      0.34569175     -0.83826107
H      -0.12586604      1.47248327      1.52910823
H       2.32146769      1.36522379      1.32373758
H       1.95935603     -1.61804790     -1.75046815
