27
CCOC(=O)Cn1c(=O)sc2cccc(Cl)c21
C       3.13700339     -0.97176938     -0.72586196
C       2.71095556      0.38147084     -1.26320112
O       1.48531875      0.79229844     -0.64129673
C       1.60703875      1.45809822      0.54110608
O       2.67296065      1.73009953      1.08261044
C       0.25426931      1.84661025      1.12966103
N      -0.90336723      1.38925199      0.38278615
C      -1.48695530      2.25120407     -0.53810034
O      -1.15197526      3.39898360     -0.78549896
S      -2.83752518      1.45722695     -1.34493759
C      -2.52834014     -0.04981467     -0.47021231
C      -3.24308066     -1.23034012     -0.63024364
C      -2.86476299     -2.34120596      0.11408609
C      -1.78087942     -2.25325209      0.99411393
C      -1.06304310     -1.05440425      1.14881430
Cl      0.26293503     -1.11161253      2.24759765
C      -1.44506100      0.07138245      0.41333387
H       3.34239661     -0.92087491      0.34806590
H       2.33836588     -1.70839576     -0.86250116
H       4.03638889     -1.32656831     -1.23689708
H       3.49799163      1.13273071     -1.13202354
H       2.51440533      0.30561503     -2.33762344
H       0.17864142      1.51613919      2.16717376
H       0.24293795      2.94309556      1.15286143
H      -4.07712733     -1.28906866     -1.32399247
H      -3.40522361     -3.27936217      0.00855622
H      -1.49426792     -3.13753799      1.56162350
