21
CCC(CO)(CO)[N+](=O)[O-]
C      -2.28205296      0.02604704      0.39604921
C      -0.84754065      0.17879497      0.89253332
C       0.22920067      0.25394343     -0.21879980
C       0.19562629     -0.96894556     -1.15532208
O       0.27936892     -2.20302052     -0.43623851
C       1.63433668      0.41244121      0.39845375
O       2.04624285     -0.78927119      1.05923666
N       0.00546328      1.52066712     -1.03541420
O      -0.01015644      2.59467997     -0.41701328
O      -0.11797142      1.41754210     -2.26237908
H      -2.57010898      0.84686818     -0.26716783
H      -2.97091452      0.02940184      1.24735240
H      -2.42499473     -0.91874301     -0.13609178
H      -0.80055291      1.07409967      1.52628703
H      -0.63005160     -0.66618300      1.55820157
H      -0.72652009     -1.00963168     -1.74514895
H       1.02926407     -0.94897513     -1.86765558
H       1.02628021     -2.11528526      0.19503664
H       1.66085958      1.22446885      1.13457750
H       2.38213427      0.63403555     -0.37241055
H       2.89208746     -0.59293456      1.50591357
