48
CCCN1Cc2nc3c(CC(C)(C)C)cccc3c(N)c2C1=O
C       5.65222715      1.31894334      0.09997280
C       4.95943169      1.97559556      1.28497905
C       4.15636953      0.98866933      2.13215694
N       3.04073735      0.39428651      1.42195960
C       1.82877281      1.12957575      1.09844372
C       1.04010510      0.11864784      0.31572605
N      -0.17575684      0.32268679     -0.21411418
C      -0.74493683     -0.71620123     -0.86541429
C      -2.03382130     -0.56226421     -1.39891292
C      -2.78815485      0.75173311     -1.26630172
C      -3.74587655      0.90341396     -0.04769102
C      -4.87080062     -0.14576605     -0.07070644
C      -4.39352035      2.30179702     -0.13027419
C      -2.99549592      0.80236730      1.29062996
C      -2.65726120     -1.62251200     -2.08133832
C      -2.02361318     -2.84830123     -2.21651925
C      -0.75003128     -3.02406335     -1.68661241
C      -0.07847444     -1.97548390     -1.02115534
C       1.23418314     -2.13082274     -0.49849026
N       1.91930528     -3.36280149     -0.52350312
C       1.74698973     -1.05826063      0.20677253
C       3.03583710     -0.88161501      0.88426365
O       3.91977375     -1.71782238      0.91727450
H       4.92683738      0.92058871     -0.61586847
H       6.30074091      0.50039527      0.42787380
H       6.27173145      2.05184269     -0.42670948
H       4.31184520      2.78148852      0.92181695
H       5.72123407      2.44163763      1.92097244
H       3.75108301      1.49717330      3.01389437
H       4.81501612      0.18761289      2.48665073
H       2.07217177      2.00009885      0.48409035
H       1.31741457      1.41665866      2.02095751
H      -3.36405815      0.89857235     -2.19189167
H      -2.06705461      1.58051275     -1.27002950
H      -5.40748676     -0.13037039     -1.02572877
H      -4.48494447     -1.15794675      0.08801751
H      -5.60344415      0.04526695      0.72215210
H      -3.63456827      3.09178990     -0.09966210
H      -4.96242884      2.42012309     -1.05943900
H      -5.08278866      2.47185276      0.70469990
H      -2.18591351      1.53801171      1.34795015
H      -3.66964825      0.99158723      2.13422493
H      -2.56580084     -0.19338827      1.44070067
H      -3.65241484     -1.49322973     -2.50213907
H      -2.52008068     -3.66787097     -2.72967230
H      -0.28589762     -4.00111201     -1.79277761
H       1.82105300     -3.88224990     -1.38828218
H       2.90141293     -3.27084752     -0.24294662
