12
Ic1ccc(I)cc1
I       3.46889253      0.01329353     -0.09373251
C       1.39134920      0.00533193     -0.03759584
C       0.69460748      1.21338306      0.01217544
C      -0.70220905      1.20803017      0.04992012
C      -1.39134919     -0.00533192      0.03759524
I      -3.46889249     -0.01329356      0.09373235
C      -0.69460751     -1.21338301     -0.01217707
C       0.70220909     -1.20803020     -0.04991904
H       1.22228510      2.16379923      0.02215720
H      -1.23584116      2.15437908      0.08858185
H      -1.22228527     -2.16379909     -0.02216004
H       1.23584126     -2.15437922     -0.08857772
