30
CCS(=O)(=O)C(C)(CO)S(=O)(=O)CC
C      -2.80803878      2.33554935      1.71334526
C      -1.71349527      1.72704412      0.85507405
S      -1.48499813     -0.01169188      1.22815987
O      -2.76816621     -0.66037501      1.00007867
O      -0.89624695     -0.11135600      2.55166366
C      -0.32045679     -0.71307026      0.01981605
C      -1.06043077     -0.99020547     -1.30085888
C       0.20942716     -2.01410962      0.64034335
O       0.83720900     -2.85064751     -0.33303432
S       1.01785882      0.45217443     -0.25266447
O       0.51588500      1.49212970     -1.13574841
O       1.59283089      0.82275577      1.02560865
C       2.29335150     -0.42062350     -1.15789959
C       3.40669874      0.51756811     -1.58809548
H      -3.77009720      1.84476823      1.53543292
H      -2.92205590      3.39956482      1.48464576
H      -2.57405010      2.23733287      2.77821378
H      -0.77437154      2.24845255      1.04988977
H      -1.98071820      1.81110216     -0.20107774
H      -1.56364984     -0.09282126     -1.67639660
H      -0.38333274     -1.33328783     -2.08885519
H      -1.82775803     -1.76183611     -1.17245452
H      -0.61292645     -2.60002710      1.06752045
H       0.93213541     -1.82371991      1.44098420
H       1.03182626     -3.70190551      0.10517344
H       1.83781975     -0.88165600     -2.03666026
H       2.70450983     -1.19138017     -0.50186854
H       4.18537616     -0.03679865     -2.12080203
H       3.02977108      1.29978628     -2.25455087
H       3.86609331      1.00728339     -0.72353606
