24
O=[N+]([O-])c1ccc(-c2ccccc2)cc1
O       5.14855853     -0.20090330     -1.07107425
N       4.49424303     -0.64536436     -0.11685602
O       4.98203474     -1.25382768      0.84649069
C       3.04121575     -0.43671399     -0.12846938
C       2.44342607      0.22887831     -1.20412853
C       1.05823911      0.42467731     -1.20846294
C       0.25396961     -0.03647091     -0.15074410
C      -1.20332245      0.17279413     -0.16238923
C      -1.74910229      1.45648319     -0.33080201
C      -3.13234693      1.65592246     -0.34139932
C      -3.99408819      0.57354470     -0.18468644
C      -3.47428414     -0.70722116     -0.01693514
C      -2.09081943     -0.90507814     -0.00542757
C       0.87932272     -0.70291000      0.91839973
C       2.26352873     -0.90478992      0.93619752
H       3.03240980      0.59661056     -2.04180422
H       0.60223536      0.93394785     -2.05663596
H      -1.09526879      2.31899383     -0.44376318
H      -3.53496931      2.65742351     -0.46948046
H      -5.06991883      0.72803250     -0.19328194
H      -4.14439342     -1.55467894      0.10257679
H      -1.70794545     -1.91645827      0.11581815
H       0.28522312     -1.06138718      1.75818098
H       2.71205263     -1.42150447      1.78216558
