43
CCCCC(CC)COC(=O)OOC(C)(C)C
C      -3.38276753      2.55610991     -0.88964769
C      -3.09420550      1.51557132      0.18074218
C      -2.52934337      0.22932201     -0.42570211
C      -2.23919134     -0.81063165      0.66115152
C      -1.66465021     -2.15172116      0.14765593
C      -2.59832425     -2.91156960     -0.81459722
C      -3.96986522     -3.21676786     -0.23018894
C      -0.28054797     -1.98709118     -0.50779981
O       0.60812562     -1.34263702      0.41169886
C       1.83511042     -1.06181714     -0.10293514
O       2.19920629     -1.31989913     -1.24166499
O       2.56448233     -0.42908147      0.86509769
O       3.88452694     -0.13118733      0.30219915
C       4.08003682      1.29188506      0.36055825
C       3.03832625      2.02775781     -0.48896038
C       4.05198701      1.77424225      1.81474928
C       5.47422333      1.54165085     -0.22677358
H      -4.11682554      2.18351508     -1.61120944
H      -2.47084743      2.82289657     -1.43331853
H      -3.78551069      3.46636992     -0.43454966
H      -4.01906989      1.29524137      0.72643487
H      -2.38174921      1.93118814      0.90282867
H      -3.24833926     -0.17091419     -1.14874910
H      -1.61145769      0.46705618     -0.97437103
H      -3.15863011     -1.00627329      1.22630572
H      -1.54008994     -0.37763486      1.38811662
H      -1.52254728     -2.77629465      1.04114055
H      -2.72067677     -2.35562789     -1.75134459
H      -2.12609911     -3.86508424     -1.08361814
H      -3.88214719     -3.73792251      0.72822305
H      -4.55483777     -2.30492741     -0.07924881
H      -4.53381326     -3.85918157     -0.91428661
H      -0.35818533     -1.39934464     -1.43009524
H       0.12799643     -2.97467619     -0.75529752
H       3.25166089      3.10064196     -0.54277307
H       3.01275422      1.62640761     -1.50822630
H       2.02957423      1.90933606     -0.07870052
H       4.75370773      1.19888045      2.42910036
H       4.31129489      2.83556938      1.89013649
H       3.06127567      1.63868610      2.26224509
H       5.53471304      1.17173460     -1.25695332
H       6.23957808      1.00011104      0.34130333
H       5.73114166      2.60611130     -0.22565238
