22
CCC(=O)Nc1ccccc1
C      -3.86869615      0.69568114     -0.71635703
C      -2.79184476     -0.16028479     -0.07309486
C      -1.38858174      0.36057443     -0.34603671
O      -1.18501583      1.36534800     -1.01665437
N      -0.43097303     -0.44226349      0.25428357
C       0.96975131     -0.28063857      0.22514974
C       1.62401843      0.75645653     -0.44147461
C       3.02014089      0.84385830     -0.42046864
C       3.77352310     -0.10445927      0.26689097
C       3.13159193     -1.14292122      0.93515343
C       1.73689852     -1.23010868      0.91408411
H      -3.83010035      1.72372750     -0.34123993
H      -3.74591070      0.73043004     -1.80392222
H      -4.86058202      0.28870678     -0.49707499
H      -2.86361105     -1.18398854     -0.45761087
H      -2.94815796     -0.18648053      1.01127237
H      -0.77125384     -1.23957912      0.77614857
H       1.07807666      1.51758658     -0.98977638
H       3.51522318      1.65761412     -0.94458744
H       4.85782483     -0.03256087      0.28047715
H       3.71525736     -1.88540270      1.47296240
H       1.26242124     -2.05129565      1.44443531
