15
CCN(N=O)C(N)=O
C       1.75977822     -0.90747275     -0.28317355
C       0.28266803     -0.98952833     -0.63641213
N      -0.52325201     -0.07481003      0.16202699
N      -0.99360757     -0.48708778      1.52339391
O      -0.69984982     -1.65074482      1.81419381
C      -0.72624790      1.22439193     -0.27129150
N      -1.44837301      2.04190364      0.54778438
O      -0.29048287      1.68167362     -1.32629057
H       2.14572887      0.10564403     -0.43669976
H       1.93229391     -1.17477225      0.76427772
H       2.33874248     -1.59258334     -0.91002719
H      -0.08937030     -2.01249133     -0.51281434
H       0.15700135     -0.73815402     -1.69612749
H      -2.17332157      1.63310790      1.12063232
H      -1.67170780      2.94092354      0.14052740
