48
CCCCCCCCCCCC(=O)N(C)CC(=O)O
C       8.52723164      0.77803285     -0.02686398
C       7.16545810      0.88530025      0.64064695
C       6.07765805      0.21045778     -0.19450974
C       4.70948463      0.32060403      0.48040547
C       3.62074002     -0.35465727     -0.35539488
C       2.25172454     -0.24492722      0.32022345
C       1.16435194     -0.91794842     -0.52039999
C      -0.20729529     -0.94532329      0.16226090
C      -0.83303268      0.44263978      0.32293690
C      -2.20401141      0.41476208      1.00642288
C      -3.28738146     -0.27420739      0.17392154
C      -4.66476520     -0.16325350      0.81400990
O      -4.82627296      0.38251362      1.90607381
N      -5.72953759     -0.72173682      0.11108659
C      -5.63913358     -1.17421098     -1.26945054
C      -7.07514405     -0.47660427      0.64428471
C      -7.70604094      0.85507620      0.25055142
O      -8.81322278      1.23927668      0.60022350
O      -6.96199926      1.62608934     -0.56866125
H       8.81777794     -0.26903057     -0.15944209
H       9.28992134      1.26703684      0.58721334
H       8.52157199      1.26044202     -1.00950615
H       6.91952747      1.94340361      0.78775417
H       7.21409723      0.42236546      1.63313394
H       6.33057673     -0.84656239     -0.34219104
H       6.03599857      0.67440765     -1.18752820
H       4.75116863     -0.14358152      1.47327692
H       4.45680409      1.37766966      0.62794318
H       3.57829452      0.10977966     -1.34813107
H       3.87433318     -1.41147856     -0.50305095
H       2.01153428      0.81341622      0.46958836
H       2.29327257     -0.71298450      1.31107432
H       1.46276019     -1.95384148     -0.72487951
H       1.08204877     -0.41599471     -1.49212584
H      -0.86579678     -1.57527938     -0.44620196
H      -0.12099355     -1.42983913      1.14225308
H      -0.17460979      1.07403091      0.92980300
H      -0.92092252      0.92602393     -0.65749183
H      -2.11963979     -0.07357978      1.98527098
H      -2.50721139      1.45106254      1.20353861
H      -3.05251700     -1.33820317      0.06898594
H      -3.32509850      0.18827998     -0.81850968
H      -4.67017656     -1.63374545     -1.47440109
H      -6.41603448     -1.91960367     -1.46216658
H      -5.77294526     -0.31929708     -1.93744132
H      -7.73048432     -1.28301901      0.29895618
H      -7.03917161     -0.50764500      1.73864512
H      -7.49289764      2.44388343     -0.66422871
