19
O=C(O)[C@@H](O)c1ccccc1
O       1.93666297     -1.31523546      1.94819821
C       2.23426255     -0.89008547      0.84297490
O       3.25775466     -1.40965074      0.10694524
C       1.56049711      0.27872359      0.10472853
O       2.04461723      0.28364216     -1.25492167
C       0.04841066      0.23865686      0.09660146
C      -0.67481653      1.43934476      0.18254237
C      -2.06971131      1.43613364      0.12801168
C      -2.75919727      0.23555010     -0.02264472
C      -2.05535659     -0.96225820     -0.12211353
C      -0.66006590     -0.96218402     -0.06933987
H       3.29593933     -0.90674243     -0.74249328
H       1.92657416      1.19624862      0.57909356
H       1.26727625      0.15876870     -1.83303998
H      -0.15628528      2.38995492      0.29440643
H      -2.61926115      2.37114961      0.20461486
H      -3.84560580      0.23256526     -0.06002814
H      -2.59390213     -1.90007274     -0.23613500
H      -0.13779297     -1.91450916     -0.14740103
