45
CCOc1ccccc1OS(=O)(=O)NC(=O)Nc1nc(OC)cc(OC)n1
C      -3.75790965     -2.84368405     -0.41090948
C      -3.98770836     -1.35238078     -0.57373654
O      -3.92598325     -0.75197146      0.72649860
C      -4.17002019      0.59353030      0.63695775
C      -5.48482896      1.04186109      0.76659379
C      -5.75650297      2.40857146      0.72410032
C      -4.71203132      3.32201923      0.57680178
C      -3.39292876      2.87259430      0.47146698
C      -3.11928669      1.50327075      0.49126206
O      -1.84109604      1.01051182      0.43802314
S      -0.84302441      1.48377078     -0.75769280
O      -0.31087005      2.79213141     -0.42181507
O      -1.46755535      1.26210656     -2.04416894
N       0.45910893      0.48224058     -0.64176302
C       0.43702565     -0.89574257     -0.72574486
O      -0.59556885     -1.53091594     -0.89495314
N       1.61923468     -1.55687302     -0.60583454
C       2.88620486     -1.04300501     -0.39993312
N       3.06592115      0.28229361     -0.28393261
C       4.33166782      0.69258441     -0.08285004
O       4.61014750      2.03876544      0.04785292
C       3.46634939      2.88190419     -0.05338569
C       5.40352089     -0.15503311      0.00579414
C       5.10238513     -1.48475726     -0.12666693
O       6.16692738     -2.36036879     -0.04025139
C       5.79425394     -3.72604589     -0.19630526
N       3.85936464     -1.95597494     -0.32853871
H      -3.78172080     -3.35002474     -1.37978791
H      -2.79186956     -3.03632236      0.06643789
H      -4.52487631     -3.28210886      0.23634445
H      -3.21888631     -0.93011877     -1.22976139
H      -4.97369356     -1.18731203     -1.02580012
H      -6.29187406      0.32840703      0.90413706
H      -6.77992259      2.76233909      0.81892318
H      -4.92300413      4.38876380      0.55893046
H      -2.59616365      3.60684589      0.39305507
H       1.34590759      0.95284961     -0.48187908
H       1.56970350     -2.56065227     -0.67616077
H       2.74927408      2.67161535      0.74734902
H       3.80242799      3.91677508      0.06145132
H       2.99449070      2.79041565     -1.03764333
H       6.41131126      0.19820332      0.16802053
H       5.10941820     -4.04278984      0.59792005
H       6.70259577     -4.33095087     -0.11459503
H       5.36008478     -3.90733819     -1.18562765
