33
CCOP(=S)(OCC)SCCSCC
C      -2.60113006     -0.44564858      2.82690766
C      -2.80924019      0.73745622      1.90395158
O      -2.52375777      0.32731144      0.57616740
P      -2.09707027      1.45070413     -0.52082310
S      -3.44560739      2.83707610     -0.77201146
O      -1.93044130      0.48798948     -1.82161793
C      -3.05912735     -0.21277526     -2.31871756
C      -2.56901484     -1.36635613     -3.17011183
S      -0.13022099      2.03466201     -0.03403522
C       0.76895970      0.45550106     -0.01196071
C       2.23550192      0.68960684      0.33431812
S       3.11294072     -0.91079317      0.39133882
C       4.73385754     -0.35031313      1.00642752
C       5.51401327      0.42104947     -0.04252482
H      -1.56743845     -0.80232745      2.76819801
H      -2.82322509     -0.17624715      3.86320751
H      -3.24384119     -1.28222033      2.53340163
H      -3.84928625      1.07315429      1.95562242
H      -2.15637497      1.56276806      2.20331964
H      -3.67155536     -0.59309496     -1.49562929
H      -3.66373227      0.46678602     -2.92659479
H      -3.40922964     -1.93108436     -3.58360124
H      -1.94487402     -2.04370563     -2.57778313
H      -1.94837085     -1.00106189     -3.99502693
H       0.67123468     -0.01011899     -0.99815658
H       0.29132397     -0.19685480      0.72647918
H       2.32760920      1.17050532      1.31401215
H       2.70723937      1.32515792     -0.42145357
H       4.59482810      0.25203332      1.90967087
H       5.30116851     -1.24143894      1.29397133
H       6.50698199      0.67196349      0.34554540
H       5.65507214     -0.16988904     -0.95366896
H       5.02280714      1.36157851     -0.30882213
