36
CC1CC(C)(C)OC(Cc2ccccc2)O1
C      -3.49947857     -1.86850535      1.10042196
C      -2.51370585     -1.18689056      0.16177228
C      -2.55338013      0.33156798      0.31379438
C      -1.53383806      0.96552016     -0.64967197
C      -2.18414645      1.25642448     -2.00821288
C      -0.97097958      2.27186794     -0.07926150
O      -0.45256481      0.06392086     -0.91641604
C      -0.15465368     -0.78205730      0.19259226
C       1.11921462     -1.58525146     -0.10799828
C       2.37959159     -0.77153704      0.08284733
C       2.78714047      0.14658703     -0.89438163
C       3.93994606      0.91102113     -0.71077494
C       4.69531448      0.76622934      0.45122148
C       4.29777546     -0.14191917      1.43086541
C       3.14431998     -0.90687104      1.24942448
O      -1.21356107     -1.71314957      0.43843251
H      -3.24900687     -1.66341648      2.14712772
H      -4.52440657     -1.53474808      0.91242665
H      -3.45756706     -2.95589908      0.97490351
H      -2.76805834     -1.46819599     -0.86702126
H      -2.28547578      0.58431645      1.34879733
H      -3.56096126      0.72988571      0.14680466
H      -1.45274015      1.67659166     -2.70852773
H      -3.01756887      1.96056664     -1.91588607
H      -2.55776346      0.33653692     -2.47152200
H      -0.22652020      2.70376790     -0.75796668
H      -1.76195645      3.01059320      0.08670220
H      -0.45511320      2.10276419      0.87206449
H      -0.00266146     -0.18678394      1.10221590
H       1.16152302     -2.47295316      0.53643765
H       1.09383642     -1.96765278     -1.13683766
H       2.20197264      0.27265568     -1.80355546
H       4.24714492      1.61970900     -1.47516069
H       5.59363932      1.36092331      0.59307114
H       4.88690577     -0.25525476      2.33706487
H       2.84778314     -1.61036385      2.02420656
