17
O=C(O)c1cc(Br)c(O)cc1O
O      -3.06702618     -0.56021724     -0.16627305
C      -1.98692615     -1.10227193     -0.00334040
O      -1.87877292     -2.42600055      0.19218918
C      -0.68951059     -0.39147338      0.00010510
C       0.51499300     -1.08398806      0.19423470
C       1.72381030     -0.38580296      0.19237363
Br      3.33929582     -1.33966459      0.45627805
C       1.73550397      0.99695061     -0.00190434
O       2.89248612      1.72433821     -0.01203381
C       0.54599591      1.69138807     -0.19510650
C      -0.66375770      0.99867519     -0.19409255
O      -1.78993578      1.75376241     -0.39078972
H      -2.80077612     -2.75944937      0.16550635
H       0.51164444     -2.16056756      0.34595600
H       3.63256371      1.10746804      0.13426459
H       0.55927119      2.76737824     -0.34595107
H      -2.57885901      1.16947487     -0.37141617
