42
O=C1CC/C=C\CCCCCCCCCC1
O       3.77342052     -1.32011023     -1.13843966
C       3.01246774     -0.88538958     -0.27416028
C       3.13189671      0.53784383      0.22882160
C       2.38042003      1.48174681     -0.70518443
C       2.07738729      2.79272609     -0.03112339
C       0.88092101      3.40201720      0.02973295
C      -0.38984272      2.94339679     -0.62937484
C      -1.22389746      2.04765508      0.28908567
C      -2.42220085      1.46286600     -0.46443743
C      -3.27819479      0.50136287      0.36705165
C      -2.53979491     -0.68367232      0.99981189
C      -1.70695488     -1.50001872      0.00742865
C      -1.00337092     -2.66634132      0.70616837
C       0.01644209     -3.39105532     -0.18004130
C       1.15550337     -2.52722066     -0.73821764
C       1.90786572     -1.73586868      0.32882178
H       4.19469152      0.80139210      0.28166268
H       2.74737283      0.58171416      1.25456830
H       1.46431757      0.99755975     -1.05989877
H       2.99314741      1.67443000     -1.59414953
H       2.91935192      3.27918526      0.46131033
H       0.81098321      4.34047978      0.57875170
H      -0.97316126      3.82739639     -0.91541776
H      -0.16363777      2.42263665     -1.56714601
H      -1.57524651      2.62152032      1.15533123
H      -0.59061240      1.24140677      0.67521201
H      -3.06320263      2.28402996     -0.80943298
H      -2.07604513      0.94918024     -1.36937800
H      -3.77289385      1.06631856      1.16687033
H      -4.07862833      0.11397964     -0.27573006
H      -1.89358587     -0.31740637      1.80670003
H      -3.28071135     -1.33816321      1.47573785
H      -0.96316221     -0.84890612     -0.45842363
H      -2.34865475     -1.88365982     -0.79435490
H      -1.75866044     -3.39219574      1.03289104
H      -0.50843298     -2.31553521      1.61923297
H      -0.50899745     -3.85903452     -1.02164042
H       0.45390729     -4.21038478      0.40418995
H       1.85619847     -3.18514494     -1.26794102
H       0.76543920     -1.84081769     -1.49943502
H       2.36031010     -2.40191347      1.07095280
H       1.21784544     -1.06800554      0.85359328
