22
Clc1ccc(Cl)c(-c2cccc(Cl)c2Cl)c1
Cl     -3.50758908      2.01096703      2.11191040
C      -2.76150248      0.95053472      0.98164021
C      -3.55083028      0.18229301      0.13050584
C      -2.94360097     -0.67946538     -0.78334734
C      -1.54855527     -0.76977037     -0.84400894
Cl     -0.86592081     -1.86653831     -1.99479878
C      -0.73820132      0.00462211      0.00965567
C       0.73412542     -0.05585097     -0.02154581
C       1.39058458     -0.96464602      0.83074490
C       2.78126785     -1.06724395      0.84074030
C       3.54165218     -0.26055761     -0.00131728
C       2.91475347      0.65172654     -0.85500629
Cl      3.93580753      1.61818212     -1.86399121
C       1.51454012      0.76072719     -0.87032814
Cl      0.73279302      1.90265086     -1.92403990
C      -1.36973167      0.86576641      0.92676645
H      -4.63502943      0.24949412      0.17180090
H      -3.56249294     -1.27816627     -1.44763388
H       0.81090954     -1.60789381      1.49218394
H       3.27045150     -1.77836836      1.50273402
H       4.62591044     -0.34690190      0.01038245
H      -0.76934137      1.47843885      1.59695246
