39
CC1CC(OC(=O)c2ccccc2)CC(C)(C)N1
C      -2.69040269     -2.87247965     -0.77467503
C      -2.28792991     -1.56644153     -0.08849652
C      -0.78163970     -1.33576777     -0.22293329
C      -0.37877242      0.00344691      0.39200789
O       1.00719798      0.27992062      0.10643585
C       1.91343144     -0.30812476      0.92681007
O       1.65621505     -1.03975716      1.86957121
C       3.29860690      0.05673839      0.52294550
C       4.36427136     -0.46813872      1.26731020
C       5.68226206     -0.15592067      0.92805309
C       5.94315038      0.68147996     -0.15558570
C       4.88913267      1.20807172     -0.90161118
C       3.56890580      0.89808048     -0.56538372
C      -1.20727259      1.12670624     -0.23298434
C      -2.72317654      0.86593763     -0.14457000
C      -3.23966735      1.01245112      1.29865064
C      -3.45559371      1.90705964     -1.01326908
N      -3.05566649     -0.46493068     -0.68487743
H      -2.45720594     -2.85600099     -1.84537941
H      -2.16039948     -3.72121803     -0.32892819
H      -3.76480992     -3.05766991     -0.66498200
H      -2.54906709     -1.66480686      0.97155423
H      -0.47614048     -1.36238252     -1.27811227
H      -0.23118238     -2.15130675      0.26156648
H      -0.53736055     -0.00212145      1.47737427
H       4.17131059     -1.12288136      2.11527398
H       6.50411378     -0.56636808      1.50970708
H       6.96988856      0.92421561     -0.41911823
H       5.09524552      1.86105965     -1.74632331
H       2.76298992      1.31972756     -1.16064904
H      -0.94847240      2.07954584      0.24758478
H      -0.90419690      1.24459226     -1.28355754
H      -2.75463436      0.32395582      1.99683650
H      -4.31908074      0.82706889      1.35224078
H      -3.06276442      2.02750303      1.67322990
H      -3.25122386      2.92532014     -0.66244700
H      -4.54171778      1.75875258     -0.98582656
H      -3.13987482      1.85165134     -2.06192448
H      -2.90846948     -0.46696853     -1.69551814
