23
CN(C)CCCNC=O
C      -1.95879418      1.40096148      0.12789072
N      -1.58022211      0.01483789      0.41374149
C      -2.78885449     -0.79444219      0.60034581
C      -0.75269180     -0.56116005     -0.66087734
C       0.65772422      0.03339890     -0.75245816
C       1.45433819     -0.15494757      0.53677521
N       2.80320520      0.36421979      0.41214280
C       3.80716317     -0.35098040     -0.18617078
O       3.70405097     -1.47247019     -0.66038848
H      -1.07994585      2.05184220      0.08848248
H      -2.59239821      1.79840599      0.92923983
H      -2.50459378      1.49457289     -0.81790443
H      -2.52604623     -1.82232891      0.87438636
H      -3.40982296     -0.82453183     -0.30241039
H      -3.39418036     -0.39901731      1.42380536
H      -0.63681829     -1.63948938     -0.48777278
H      -1.25320997     -0.45475341     -1.63229127
H       0.61891674      1.09628969     -1.01782871
H       1.18263109     -0.45908065     -1.58102598
H       1.51267137     -1.21780499      0.79722190
H       0.98807443      0.37850673      1.37108434
H       2.99302819      1.30681913      0.72558202
H       4.75577466      0.21115219     -0.20157002
