13
Oc1cccc(Br)c1
O       2.45094441      0.38471595     -0.44882967
C       1.12780023      0.16599350     -0.20058714
C       0.69594722     -0.98162544      0.46002707
C      -0.66779475     -1.16682861      0.69422211
C      -1.58753235     -0.20652153      0.26773846
C      -1.13755782      0.93734169     -0.39263985
Br     -2.38420887      2.23661779     -0.96943870
C       0.22155764      1.12932415     -0.63002732
H       2.96286405     -0.36208607     -0.09712090
H       1.40006545     -1.73612829      0.79693414
H      -1.01553519     -2.05905310      1.20900463
H      -2.64760198     -0.35791290      0.45378348
H       0.58105195      2.01616287     -1.14306630
