29
c1ccc2c(c1)Nc1ccc3ccccc3c1S2
C       4.43362654      1.45703357     -1.45512410
C       4.76383494      0.25906578     -0.83214696
C       3.75890674     -0.52722896     -0.26868127
C       2.41645337     -0.12012168     -0.31728904
C       2.08098637      1.09632529     -0.92531321
C       3.10050577      1.86811226     -1.50692889
N       0.75117838      1.53017539     -1.03825688
C      -0.39104385      0.92572613     -0.47993442
C      -1.62189816      1.56595405     -0.66942287
C      -2.80281525      1.01331876     -0.18122980
C      -2.79393631     -0.20596445      0.50086231
C      -4.00344434     -0.73618430      0.98249407
C      -4.03684794     -1.95067454      1.66257043
C      -2.85876618     -2.65117955      1.86862869
C      -1.64974604     -2.13436250      1.39411947
C      -1.57237501     -0.89876141      0.69714742
C      -0.36128369     -0.31826772      0.18746004
S       1.20161285     -1.19362497      0.41440831
H       5.21020327      2.06970109     -1.90554984
H       5.79916278     -0.06876347     -0.78940880
H       4.02963414     -1.46696682      0.20778535
H       2.86106060      2.80138980     -2.00996258
H       0.63827272      2.49772542     -1.31066318
H      -1.67304228      2.51004679     -1.20599651
H      -3.73604462      1.54825084     -0.34568883
H      -4.93896367     -0.20170630      0.82916765
H      -4.98027350     -2.34653829      2.02820402
H      -2.87152427     -3.60065589      2.39734717
H      -0.75343333     -2.72182434      1.58113793
