41
COc1cncc(-c2cccc(-c3nc4c(C(N)=O)cccn4n3)c2)c1
C       7.57671749      0.92301424     -0.86461466
O       6.27554215      1.38780552     -0.52457014
C       5.35149904      0.43481198     -0.20577662
C       5.54439774     -0.93891434     -0.16732084
N       4.57954292     -1.83128424      0.15778170
C       3.36074595     -1.32149301      0.45954986
C       3.04146676      0.03698235      0.45614698
C       1.69475259      0.52172773      0.79563156
C       1.51141831      1.55173404      1.73246784
C       0.23411943      2.01152728      2.05775555
C      -0.88674805      1.44771313      1.44930648
C      -0.74307963      0.41949970      0.50978884
C      -1.91938725     -0.16888708     -0.12716594
N      -3.19486944      0.27181578      0.14488895
C      -3.95615152     -0.49411217     -0.61043629
C      -5.36933948     -0.56542479     -0.80955867
C      -6.33046370      0.33324998     -0.10227943
N      -5.79021477      1.24053231      0.75458579
O      -7.54406071      0.27413908     -0.26975241
C      -5.86967701     -1.47965019     -1.67134759
C      -5.00939941     -2.39513408     -2.40386993
C      -3.68276445     -2.32419533     -2.21367027
N      -3.15833490     -1.38507933     -1.32735301
N      -1.86131632     -1.17232656     -1.01300259
C       0.54994496     -0.03197615      0.19284819
C       4.07980745      0.91455691      0.11213504
H       8.04114214      0.40042598     -0.02180918
H       8.19376185      1.79633283     -1.09680362
H       7.54804842      0.28768074     -1.75606136
H       6.49849973     -1.39899725     -0.39935545
H       2.61862314     -2.07110094      0.72539687
H       2.37007622      1.99982728      2.22998263
H       0.11339301      2.80769377      2.78820998
H      -1.87470714      1.81739429      1.71497384
H      -6.40613735      1.86723311      1.25197948
H      -4.78695347      1.30387159      0.90473684
H      -6.94093986     -1.56117206     -1.84681878
H      -5.45761135     -3.11165714     -3.08470231
H      -2.96745546     -2.96344039     -2.71425015
H       0.66577106     -0.82162806     -0.54956583
H       3.90034091      1.98690347      0.07619584
