44
C1CCC(NCCNC2CCCCC2)CC1
C       5.55591216     -0.31903761      0.95389250
C       4.66735780     -1.55776590      0.96312820
C       3.18688156     -1.18570225      1.00791533
C       2.79886987     -0.24645085     -0.14844052
N       1.37818095      0.10417290     -0.00183709
C       0.80823618      0.68798863     -1.22856489
C      -0.69864242      0.99596180     -1.06565384
N      -1.41765018     -0.12318989     -0.43650439
C      -2.87599807      0.05070184     -0.44887730
C      -3.35291565      1.17028050      0.49185159
C      -4.87817837      1.25090223      0.54429362
C      -5.50269593     -0.08653876      0.92652082
C      -5.03319955     -1.20607262      0.00403317
C      -3.50908175     -1.29139402     -0.04387984
C       3.69875918      1.00033262     -0.14184683
C       5.18060595      0.62806506     -0.18031277
H       6.60542032     -0.61778831      0.85387204
H       5.46243297      0.20486477      1.91311747
H       4.86611747     -2.15807595      0.06679370
H       4.91622870     -2.18305664      1.82797269
H       2.58841980     -2.10441804      0.96548427
H       2.96710204     -0.70792986      1.97213658
H       2.94707228     -0.79604018     -1.08782152
H       0.84694171     -0.75237070      0.17253935
H       1.31728705      1.61912559     -1.49689590
H       0.93172092     -0.01794566     -2.05932273
H      -0.80182682      1.89695753     -0.45019229
H      -1.11399062      1.21316493     -2.05657992
H      -1.09386166     -0.18854057      0.53045731
H      -3.20318344      0.27661118     -1.47257109
H      -2.96763136      0.99969186      1.50563012
H      -2.96691593      2.14180167      0.16352181
H      -5.25970767      1.56562088     -0.43491450
H      -5.18110001      2.01793265      1.26601500
H      -5.23665886     -0.33092928      1.96229530
H      -6.59500572     -0.00891999      0.88694840
H      -5.44496766     -2.16225569      0.34614340
H      -5.42140690     -1.03441457     -1.00746278
H      -3.21763250     -2.07509022     -0.75448624
H      -3.13829914     -1.60304589      0.94193939
H       3.48305970      1.64072197     -1.00417342
H       3.50235686      1.59981691      0.75681405
H       5.41198178      0.15528462     -1.14281555
H       5.78960497      1.53697328     -0.11700582
