20
Cn1cnc2nc(Cl)nc(NN)c21
C      -1.94875416      1.15446223     -0.98214323
N      -0.91658097      1.31929997      0.01040067
C      -0.76959642      2.42450650      0.80346855
N       0.28919308      2.33105446      1.57401705
C       0.84765706      1.12196824      1.26411241
N       1.97170342      0.64065312      1.81546650
C       2.29632406     -0.55235723      1.32058262
Cl      3.72425018     -1.25484723      1.95104777
N       1.65226756     -1.29260884      0.40253223
C       0.50814861     -0.80556355     -0.13231051
N      -0.20372842     -1.56794038     -1.07874411
N       0.21751952     -2.90013748     -1.29189107
C       0.10380998      0.45051979      0.30395316
H      -2.50782623      2.08798127     -1.08811593
H      -1.48255456      0.90153801     -1.93749504
H      -2.62102111      0.35891070     -0.65209037
H      -1.45074949      3.26644390      0.77649330
H      -1.21072340     -1.42946447     -1.02575870
H       1.18128109     -2.88022388     -1.64667987
H       0.31938021     -3.37419514     -0.38684543
