23
CN(C)c1ccc(C(=O)O)cc1
C      -2.91799051      0.53056814      0.54230033
N      -2.01047390     -0.45380508     -0.04544331
C      -2.43709482     -1.84814715      0.06304882
C      -0.64298682     -0.16299885     -0.11213561
C      -0.14898432      1.14575329      0.04526373
C       1.21897734      1.44955084     -0.03722569
C       2.14546438      0.44112497     -0.29342425
C       3.60032954      0.70525942     -0.39157195
O       4.46325387     -0.12399168     -0.61374464
O       3.91050447      2.00070680     -0.20481092
C       1.69022166     -0.86377969     -0.47058001
C       0.31975490     -1.15242843     -0.38556883
H      -2.64326785      0.74913513      1.58015750
H      -3.95206301      0.16771758      0.54419483
H      -2.92772297      1.45810445     -0.04003389
H      -2.13014946     -2.42629226     -0.81510272
H      -3.52923014     -1.92770677      0.10645415
H      -2.03568996     -2.31324284      0.97018970
H      -0.82113984      1.97752395      0.23398665
H       1.53978692      2.47949592      0.09657889
H       4.88581454      2.02184424     -0.29819151
H       2.39277706     -1.66769093     -0.68061790
H       0.02990893     -2.18670104     -0.54508206
