27
CNC(=S)N(C)c1ccc(Cl)cc1C
C       3.10077460     -0.60799754      1.89704070
N       1.97172660     -0.38594647      1.01553580
C       2.02554999     -0.20508354     -0.35951299
S       3.47845299     -0.16838236     -1.20993303
N       0.74590135     -0.10201923     -0.95845295
C       0.61066079     -0.04605485     -2.42224643
C      -0.40373818      0.35458747     -0.23651214
C      -0.30242545      1.52615760      0.53309665
C      -1.40955143      2.02980396      1.21715753
C      -2.62751583      1.36514241      1.13472864
Cl     -3.99858313      1.98601142      1.96778229
C      -2.74347550      0.19475438      0.38534940
C      -1.63204675     -0.33570450     -0.29514826
C      -1.80968526     -1.62905140     -1.04343955
H       3.85153124      0.17326678      1.75468806
H       2.73944959     -0.58144260      2.92803816
H       3.53388884     -1.58915847      1.68530879
H       1.07316987     -0.68362459      1.37233504
H       1.04273834     -0.95270939     -2.85707688
H       1.14718136      0.83026285     -2.80081535
H      -0.43150123      0.03472385     -2.74186007
H       0.63861430      2.07074255      0.58170403
H      -1.31473383      2.94251053      1.79904137
H      -3.70272251     -0.31713075      0.34017094
H      -2.56075556     -2.25897631     -0.55377777
H      -0.88347601     -2.21165532     -1.06530797
H      -2.13942920     -1.43302648     -2.06789400
