6
I/C=C/I
I       2.46012216      0.21383925     -0.21462760
C       0.51254404     -0.40184133     -0.30289916
C      -0.51254404      0.40184135      0.00319395
I      -2.46012217     -0.21383929     -0.08507763
H       0.35261540     -1.42895501     -0.61543856
H      -0.35261540      1.42895503      0.31573336
