33
CCCC(Cn1cncn1)c1ccc(Cl)cc1Cl
C      -1.51067948      3.56092682      0.64840252
C      -1.42472244      2.26993274     -0.15139674
C       0.00747944      1.72186135     -0.17376239
C       0.14499233      0.43762775     -1.03048696
C       1.62347152      0.07197894     -1.29505497
N       2.38447948     -0.30932159     -0.12676166
C       2.68617983     -1.56585139      0.29844019
N       3.42198849     -1.49622835      1.38371650
C       3.56344592     -0.15110624      1.57171388
N       2.94816451      0.61767550      0.66924815
C      -0.64554114     -0.77462757     -0.53267560
C      -0.74906288     -1.04268662      0.84623152
C      -1.45276773     -2.15428153      1.31740112
C      -2.06009557     -3.02185765      0.41767358
Cl     -2.92526783     -4.38980466      0.99862530
C      -1.96251311     -2.79460541     -0.95003140
C      -1.25594005     -1.68376148     -1.42243871
Cl     -1.15030976     -1.50218957     -3.13967729
H      -2.53825355      3.93776381      0.65017359
H      -0.86642489      4.33372563      0.21712883
H      -1.20619332      3.39921185      1.68737756
H      -1.76550885      2.46064794     -1.17565472
H      -2.11089138      1.53802924      0.28759095
H       0.66322943      2.49456813     -0.59675097
H       0.34990911      1.56100058      0.85382863
H      -0.26904069      0.72624147     -2.00517558
H       1.69250825     -0.76100753     -2.00544126
H       2.14703364      0.91964122     -1.75452210
H       2.35163722     -2.46606734     -0.19805635
H       4.13044933      0.27861297      2.38764058
H      -0.27373771     -0.39678009      1.58287130
H      -1.51655139     -2.33581916      2.38793474
H      -2.43146671     -3.48344977     -1.64811224
