65
CCCC1O[C@@H]2C[C@H]3[C@@H]4CCC5=CC(=O)C=C[C@]5(C)[C@H]4[C@@H](O)C[C@]3(C)[C@]2(C(=O)CO)O1
C       4.41868170     -0.56705526      3.56830226
C       4.43524698     -1.68708556      2.53973874
C       3.35511237     -1.57416145      1.46081844
C       3.53265842     -0.40444608      0.49591302
O       3.30032937      0.83879320      1.14139558
C       2.38791886      1.57476480      0.33030060
C       1.01878378      1.66645872      1.03559912
C       0.15254871      0.65865139      0.28182581
C      -1.37323609      0.73117450      0.43246238
C      -1.77190694      0.66785780      1.91824893
C      -3.28180878      0.60055654      2.11105876
C      -3.85744721     -0.54343477      1.31718950
C      -4.52901341     -1.53066004      1.93698376
C      -5.05536973     -2.69689775      1.19992440
O      -5.66690955     -3.59033335      1.77174317
C      -4.80569430     -2.74688793     -0.25230657
C      -4.13815070     -1.76420880     -0.87136606
C      -3.57866640     -0.51704665     -0.19408360
C      -4.33938181      0.68248107     -0.80300389
C      -2.01239759     -0.45225003     -0.37548614
C      -1.49509753     -0.50264583     -1.84480697
O      -2.09282551      0.51619106     -2.63315249
C       0.04240365     -0.40066937     -1.96315507
C       0.64010426      0.78771989     -1.18157856
C       0.24215072      2.13503493     -1.84198492
C       2.18154657      0.74977824     -0.94984594
C       3.01647061      1.26939836     -2.12825734
O       3.34456412      2.45374866     -2.24812174
C       3.43366005      0.25355855     -3.18502089
O       3.86977833      0.89362023     -4.37638972
O       2.61660486     -0.56486696     -0.59187283
H       4.76491028      0.37691242      3.13909747
H       5.09086119     -0.81081543      4.39779426
H       3.41473292     -0.41980824      3.97855391
H       4.28664232     -2.63704007      3.06785499
H       5.42575360     -1.74000332      2.07311499
H       2.37052915     -1.50788513      1.94167414
H       3.34719437     -2.50715636      0.88147642
H       4.54843574     -0.39877227      0.08440368
H       2.79259262      2.57984302      0.17794112
H       1.08460935      1.42993853      2.10256072
H       0.60479784      2.67562296      0.93231006
H       0.44382882     -0.33378881      0.66213245
H      -1.73708602      1.68529080      0.03852861
H      -1.39022361      1.54924864      2.44699714
H      -1.30759234     -0.20811165      2.39013243
H      -3.74599206      1.54317226      1.79959757
H      -3.49804121      0.49230690      3.18116270
H      -4.70857858     -1.53950173      3.00599271
H      -5.20156688     -3.60593276     -0.78012093
H      -4.01495126     -1.84069460     -1.94982541
H      -4.39613215      0.62899226     -1.89536609
H      -5.37758080      0.71333906     -0.44620965
H      -3.88538194      1.64410065     -0.54680649
H      -1.61597474     -1.37297246      0.08667724
H      -1.78988415     -1.45800098     -2.29366775
H      -1.81889567      0.38136052     -3.55780780
H       0.46639283     -1.34248620     -1.59399319
H       0.32088865     -0.32015733     -3.02026452
H       0.49860250      2.13133109     -2.90771266
H      -0.82436342      2.35464741     -1.76999434
H       0.75678784      2.98989183     -1.39086300
H       4.25710640     -0.34904529     -2.79244360
H       2.59380670     -0.39381534     -3.44170661
H       4.25311387      1.75139045     -4.10229228
