32
C=CC1(C(C)CCC)C(=O)NC(=O)NC1=O
C       1.66456432      2.52311980     -0.10408760
C       1.05523850      1.55701662      0.59954294
C       0.89428476      0.07197833      0.23957987
C      -0.63569819     -0.30186006      0.15214916
C      -0.83183941     -1.78109016     -0.22776261
C      -1.46775122      0.62872878     -0.77164245
C      -2.97526125      0.34375441     -0.82503042
C      -3.67116997      0.47503714      0.52062366
C       1.51978804     -0.64528703      1.44723428
O       0.91030704     -0.89007564      2.48907542
N       2.84591404     -0.96474370      1.36202606
C       3.53739942     -1.12005178      0.20600709
O       4.60460082     -1.72385266      0.17448252
N       2.95868594     -0.64680317     -0.92590411
C       1.64805954     -0.27475487     -1.05525959
O       1.16896471     -0.18683470     -2.18482647
H       1.69397292      3.54186453      0.27528184
H       2.12732494      2.35454500     -1.07169834
H       0.60223570      1.84865781      1.55047576
H      -1.05242673     -0.18639230      1.16210264
H      -0.18236607     -2.43869844      0.35829938
H      -1.86003235     -2.10195755     -0.03264205
H      -0.62473885     -1.95741413     -1.28784073
H      -1.09126417      0.57315789     -1.79804264
H      -1.34377012      1.67058400     -0.45445216
H      -3.43162501      1.05975607     -1.51985001
H      -3.16539246     -0.64991228     -1.24444509
H      -3.47047707      1.45100519      0.97361902
H      -3.34945009     -0.30398549      1.21767360
H      -4.75417344      0.37707672      0.39379241
H       3.23822039     -1.43094797      2.16849038
H       3.43787532     -0.87162038     -1.78697177
