26
CCCCCC(C)C
C       4.13852678     -0.22546251     -0.04818785
C       2.74520707     -0.73555916      0.28339755
C       1.66386439      0.21425443     -0.23137820
C       0.26282694     -0.30242470      0.10499688
C      -0.81854890      0.64884698     -0.41632917
C      -2.24467097      0.24456820      0.00105672
C      -3.23805353      1.32533924     -0.43295862
C      -2.66422278     -1.10536842     -0.58252152
H       4.27404511     -0.12971062     -1.13022406
H       4.31708841      0.75315504      0.40871299
H       4.89600410     -0.91968293      0.32890155
H       2.65346934     -0.85063301      1.36969292
H       2.61091988     -1.72876155     -0.16068957
H       1.80631250      1.20710089      0.21248408
H       1.76188146      0.32877603     -1.31782656
H       0.16366665     -0.41197045      1.19159132
H       0.13443553     -1.29664919     -0.33695017
H      -0.75458072      0.70791897     -1.51041594
H      -0.61217764      1.65740913     -0.03524482
H      -2.28405406      0.17270592      1.09537589
H      -3.24769281      1.44234290     -1.52203700
H      -4.25373219      1.07323627     -0.10996646
H      -2.97925754      2.29286284      0.01010514
H      -3.70478095     -1.33247057     -0.32619900
H      -2.57680502     -1.11046766     -1.67423964
H      -2.04967105     -1.91935608     -0.18660293
