19
CCN1CCCC1=O
C       2.44596301     -0.01195798     -0.25166068
C       1.47701394      0.06221438      0.91669955
N       0.09072393      0.07540068      0.48833345
C      -0.58313158     -1.10808831      0.01877763
C      -2.01370719     -0.63890624     -0.15402576
C      -1.86514264      0.82079430     -0.56701094
C      -0.56260539      1.23165599      0.07719522
O      -0.14979891      2.37600801      0.16572101
H       3.47873384      0.00600328      0.10968473
H       2.30657665      0.83285263     -0.93408920
H       2.30255905     -0.93265624     -0.82615756
H       1.67012893      0.98008060      1.48297852
H       1.61901428     -0.78772294      1.59220869
H      -0.14423573     -1.41185974     -0.93728563
H      -0.49406751     -1.91819131      0.74762488
H      -2.57272840     -1.23380875     -0.88156227
H      -2.54281017     -0.69439654      0.80565879
H      -2.69377338      1.43136759     -0.20073065
H      -1.76871272      0.92121058     -1.65235977
