66
CC(C)(C)C(=O)OCOP(=O)(COCCn1cnc2c(N)ncnc21)OCOC(=O)C(C)(C)C
C      -0.70018329      7.80373827      1.19200318
C      -1.37255212      6.56623014      0.57439949
C      -2.42080608      6.02948583      1.56117691
C      -2.03798307      6.95758050     -0.75145646
C      -0.31150303      5.49916402      0.29401066
O       0.89973150      5.68304513      0.34519716
O      -0.88831650      4.31388235     -0.04822031
C       0.05485138      3.29560571     -0.37839556
O      -0.63818353      2.06900263     -0.52258893
P       0.27874182      0.74854788     -0.63229323
O       1.45773193      0.92457536     -1.54265051
C       0.71151578      0.33531991      1.06531769
O       0.95418447     -1.07156166      1.21578484
C       2.16745621     -1.49853707      0.58714898
C       2.42143599     -2.95262797      0.96789190
N       3.56922359     -3.51062719      0.29606904
C       3.54537305     -4.34433989     -0.78969759
N       4.75839236     -4.69565231     -1.16358214
C       5.60064534     -4.06005942     -0.27107778
C       6.99897932     -4.02890820     -0.14014927
N       7.85681291     -4.72682396     -0.98152304
N       7.53956350     -3.26480590      0.83714030
C       6.70532932     -2.58813461      1.65822329
N       5.35650441     -2.54602657      1.63644316
C       4.87591002     -3.30928060      0.64090371
O      -0.75569865     -0.37767581     -1.13817587
C      -1.98946962     -0.51439176     -0.46394566
O      -2.62904766     -1.71119449     -0.90360715
C      -3.82228300     -1.94074850     -0.29022804
O      -4.30580744     -1.20765614      0.56240807
C      -4.46194788     -3.23543172     -0.79787843
C      -5.82693242     -3.43383992     -0.12017532
C      -4.67020668     -3.14781100     -2.31589749
C      -3.54937116     -4.41889562     -0.44884631
H      -0.20818879      7.55343335      2.13965687
H       0.06562291      8.21971620      0.52633459
H      -1.43129394      8.59483738      1.39162387
H      -2.98935092      5.19429368      1.13548330
H      -3.14117715      6.80709125      1.83898117
H      -1.94475449      5.66534261      2.47855953
H      -2.53907689      6.10087671     -1.21696193
H      -1.29781137      7.32891680     -1.47083539
H      -2.79090405      7.74071867     -0.60272584
H       0.80171644      3.19506048      0.41742599
H       0.53677062      3.54294317     -1.33041506
H       1.57404917      0.91346136      1.41250294
H      -0.12908586      0.58076333      1.72098852
H       2.06586414     -1.41462324     -0.49978218
H       2.99956404     -0.86436018      0.91357905
H       1.54724790     -3.56957223      0.72684384
H       2.57662327     -3.04930585      2.04917851
H       2.62583897     -4.66099574     -1.26696616
H       8.78020255     -4.31598814     -1.00997049
H       7.42792665     -4.98975076     -1.86278561
H       7.18621338     -1.99927986      2.43447065
H      -1.82032062     -0.56766295      0.61524160
H      -2.62044080      0.34609261     -0.70846590
H      -6.50518160     -2.60107085     -0.34143961
H      -5.72506209     -3.49079730      0.96972588
H      -6.30956248     -4.35748663     -0.46019253
H      -3.71738909     -3.05621369     -2.85008926
H      -5.17798200     -4.04076071     -2.69919075
H      -5.27699651     -2.27306659     -2.57953632
H      -2.58111633     -4.34413369     -0.95637610
H      -4.00398438     -5.37062743     -0.74362152
H      -3.35005148     -4.45899920      0.62838392
