11
C[O-].C[O-].[Mg+2]
C       0.00291433      0.03803838     -0.00420381
O       0.10349088      1.35077950     -0.14928149
C       0.03764556     -0.00558981     -0.00496485
O       1.33683000     -0.19849952     -0.17630674
Mg      0.00000000      0.00000000      0.00000000
H      -0.74904814     -0.48257597     -0.62121758
H      -0.25764411     -0.34121918      0.99852539
H       0.90028703     -0.56502274     -0.22382250
H      -0.64796612     -0.57313955     -0.65689795
H      -0.34460826      1.01919700     -0.14948773
H      -0.38190118     -0.24196811      0.98765727
