14
NC(=S)NNC(N)=S
N      -1.43204612      1.43845678      0.47144694
C      -1.54826077      0.61917654     -0.59992706
S      -2.62320122      0.93291959     -1.82122515
N      -0.74418722     -0.48056362     -0.61064880
N       0.05638324     -0.80842132      0.48304063
C       1.41322570     -0.87224025      0.37823766
N       1.94410425     -0.47882990     -0.80327157
S       2.36524173     -1.41635019      1.62045753
H      -1.92113733      2.32466037      0.45589779
H      -0.59350773      1.37383513      1.03348896
H      -0.84257221     -1.17205275     -1.35027400
H      -0.40386402     -1.16384225      1.31774475
H       1.37941144      0.09899464     -1.41192145
H       2.95041027     -0.39574277     -0.87575250
