23
CC(CC=O)c1ccccc1
C      -1.26003465     -1.20823611     -1.67872546
C      -1.04893454     -0.71154189     -0.24433285
C      -2.10419236      0.34086859      0.12142004
C      -2.08491807      0.63146931      1.60019293
O      -3.02538753      0.37263985      2.34573395
C       0.36935411     -0.19831817     -0.04930213
C       0.87099853      0.88468721     -0.78767908
C       2.17156011      1.34747773     -0.57835301
C       2.98714460      0.73490228      0.36988742
C       2.50416471     -0.34241789      1.10842872
C       1.20424629     -0.80711596      0.90049024
H      -2.24703871     -1.67169355     -1.78396697
H      -1.19692079     -0.39340349     -2.40812330
H      -0.50839665     -1.95844005     -1.94885748
H      -1.19532650     -1.57806184      0.41557192
H      -3.10633645     -0.02495203     -0.13228841
H      -1.95555163      1.28607502     -0.41143134
H      -1.17136610      1.11203975      1.99005994
H       0.25647362      1.37882978     -1.53685769
H       2.54956500      2.18575168     -1.15818110
H       3.99999491      1.09468961      0.53101321
H       3.14082490     -0.82363736      1.84662381
H       0.85007720     -1.65161248      1.48867663
