21
NC(=O)C[C@H](NC(N)=O)C(=O)O
N      -2.29768049      0.39736864     -1.18922303
C      -1.98318491     -0.83377486     -0.69804422
O      -2.85218679     -1.63926921     -0.38668936
C      -0.50779122     -1.12019512     -0.57862954
C       0.08267591     -0.34364212      0.59763308
N       1.23420268      0.47080450      0.18494735
C       1.05075332      1.62510853     -0.50869859
N       2.20019204      2.31896735     -0.67673986
O      -0.02061921      2.01326546     -0.95178665
C       0.55938985     -1.29594633      1.69035972
O       1.69862663     -1.36636655      2.13051215
O      -0.42145013     -2.06085124      2.20180704
H      -3.27191083      0.66527203     -1.21432478
H      -1.59929836      1.14117730     -1.25629949
H      -0.03695411     -0.85040193     -1.53223142
H      -0.38257099     -2.20408898     -0.47016575
H      -0.63764250      0.33951531      1.06520865
H       2.03139931      0.45938591      0.81308103
H       2.10711000      3.11312636     -1.29846377
H       3.04056877      1.77603548     -0.81747815
H       0.00637104     -2.60549050      2.89522562
