24
O.O=C(O)CC(O)(CC(=O)O)C(=O)O
O      -0.00374959      0.39779731      0.00000000
O       2.29065971      0.18614314      1.60581083
C       2.23131537      0.51303144      0.42983455
O       3.33032130      0.81112122     -0.27866091
C       0.95724072      0.68378112     -0.34367834
C      -0.10719877     -0.31361584      0.13898075
O      -0.49751595     -0.06834537      1.50934178
C      -1.36911501     -0.33450731     -0.73265148
C      -2.13698815      0.95588253     -0.71973129
O      -1.68843438      2.08513122     -0.63359715
O      -3.45967505      0.76024126     -0.88881013
C       0.45504567     -1.74522675      0.08206014
O       1.12339824     -2.19624394     -0.83470976
O       0.09658552     -2.47406649      1.16875612
H      -0.76155923     -0.20609470      0.00000000
H       0.76530882     -0.19170262      0.00000000
H       4.08568310      0.65229593      0.32586479
H       1.16659416      0.52744423     -1.40820850
H       0.64926028      1.72120441     -0.18772404
H       0.31825336      0.16656398      2.00806880
H      -2.04391435     -1.11715825     -0.35959065
H      -1.12938177     -0.57381095     -1.77536310
H      -3.84384220      1.66252274     -0.88281757
H      -0.42829179     -1.90238831      1.77682515
