25
c1cc2c3c(c1)ccc1cccc(c13)C2
C       3.32520345     -0.58286493      0.05480479
C       2.40654443     -1.64204249     -0.08111903
C       1.05975420     -1.33942253     -0.09673530
C       0.67571602     -0.01831049      0.02104495
C       1.52391175      1.07541219      0.15801573
C       2.89743887      0.76152385      0.17342033
C       0.89474158      2.34283645      0.26219669
C      -0.51929894      2.45715404      0.22567193
C      -1.33758599      1.30674638      0.08410281
C      -2.74264485      1.21748701      0.02772983
C      -3.37402043     -0.04128046     -0.11824063
C      -2.63156102     -1.23474869     -0.21127689
C      -1.25465443     -1.15231948     -0.15653129
C      -0.67007402      0.09048667     -0.01371822
C      -0.17293235     -2.21091132     -0.22472333
H       4.39116786     -0.80178604      0.06919683
H       2.75473737     -2.66569566     -0.17068626
H       3.63645517      1.55151670      0.27662454
H       1.49945804      3.23952783      0.37143772
H      -0.97701881      3.43974123      0.30745713
H      -3.34956745      2.11628898      0.09618024
H      -4.46062037     -0.08618145     -0.15944053
H      -3.13450538     -2.18959764     -0.32280053
H      -0.25083439     -2.90607319      0.61567863
H      -0.18981031     -2.72748697     -1.18829010
