30
CNS(=O)(=O)c1cc(OC)c(N)cc1OC
C       3.06103952      0.83104666     -1.23211274
N       3.13683847      0.15898808      0.06340713
S       2.02369920      0.60241341      1.25103448
O       2.24982799     -0.24175139      2.40325891
O       2.05128013      2.04621650      1.35612875
C       0.46504411      0.13665033      0.54825583
C      -0.53439452      1.10789703      0.40338703
C      -1.76494924      0.75600729     -0.15416296
O      -2.81722880      1.61853207     -0.35022344
C      -2.58632247      2.99554150     -0.07813385
C      -2.00676937     -0.58117280     -0.53764456
N      -3.18773767     -0.91916650     -1.22754930
C      -0.98359729     -1.52872987     -0.42397902
C       0.24082663     -1.18193444      0.15084085
O       1.24650020     -2.10913557      0.22545540
C       0.92952675     -3.13933046      1.16626198
H       2.19256111      0.48689004     -1.79910192
H       3.95687983      0.58181346     -1.80866549
H       3.02864158      1.91739010     -1.11854281
H       3.23441352     -0.85804549      0.03153510
H      -0.33206825      2.12367816      0.72796770
H      -2.39778589      3.15859206      0.98793978
H      -1.76900548      3.38971282     -0.69116034
H      -3.49509350      3.54475240     -0.34252888
H      -3.49668899     -1.87397628     -1.08457748
H      -3.91948384     -0.23124101     -1.05009974
H      -1.13696313     -2.53371362     -0.80651331
H       0.20641595     -3.84262833      0.74116303
H       1.85070620     -3.68940821      1.38026260
H       0.55388726     -2.72588794      2.10922835
