38
NC(Cc1ccc(O)cc1)C(=O)NCC(=O)NCC(=O)O
N       0.03851375     -0.37159568     -1.91709450
C       0.56137350      0.60786823     -0.92295416
C       1.60122364      0.00619595      0.04006958
C       2.83240358     -0.52193382     -0.66029120
C       3.02363880     -1.90158835     -0.82568040
C       4.15384892     -2.38730169     -1.48707603
C       5.09629083     -1.49054046     -1.97938116
O       6.21392487     -1.91974004     -2.63091872
C       4.92627429     -0.12091373     -1.82135465
C       3.79640746      0.36465265     -1.16163497
C      -0.62203681      1.20322639     -0.12890276
O      -0.55630729      1.58179977      1.03741482
N      -1.78025287      1.29019136     -0.86184744
C      -2.99833498      1.91767776     -0.38647816
C      -3.80751908      1.04397095      0.57919779
O      -5.03586465      0.96575109      0.55270660
N      -3.10482637      0.49251004      1.61766143
C      -3.68717508     -0.40666904      2.60155460
C      -4.56705511      0.25970572      3.65808116
O      -4.54899139     -0.05417758      4.84220938
O      -5.46226429      1.14830504      3.16724853
H       0.82422124     -0.65327782     -2.51120236
H      -0.22389065     -1.22505955     -1.42073936
H       1.00616245      1.44210236     -1.48076639
H       1.92152365      0.76241834      0.77017274
H       1.14185686     -0.79319324      0.63774770
H       2.29287895     -2.60919807     -0.44049478
H       4.28179925     -3.45919751     -1.60750554
H       6.20912807     -2.89048742     -2.65401151
H       5.67294699      0.56683850     -2.20833959
H       3.67897479      1.43915816     -1.03904723
H      -1.76245488      0.80855537     -1.75858543
H      -3.61426600      2.13182411     -1.26438304
H      -2.74790190      2.85444676      0.12347241
H      -2.14423166      0.81198900      1.75806098
H      -4.29040266     -1.15897215      2.08245209
H      -2.85260130     -0.90271315      3.10758576
H      -5.46701490      1.16737175      2.17937402
