26
CCC(C#N)(CC)C(=O)NC(N)=O
C      -1.77882589      1.88403850     -0.02378821
C      -1.39859323      0.79911631     -1.02849706
C      -0.40144526     -0.27645063     -0.51110000
C      -0.28028955     -1.32103908     -1.55421030
N      -0.16655043     -2.16475750     -2.34225916
C      -0.85179714     -0.92185295      0.82772110
C      -2.25277895     -1.52945805      0.82217078
C       1.01182750      0.33802167     -0.34340992
O       1.25669926      1.51462339     -0.61641537
N       1.98746678     -0.52754835      0.13924931
C       3.30279585     -0.25450369      0.38760841
N       3.65643656      1.04525864      0.46628170
O       4.11577817     -1.15653780      0.55133737
H      -2.42568741      2.62371107     -0.50739320
H      -0.90309488      2.41242069      0.36171496
H      -2.33196009      1.47561761      0.82612093
H      -2.32362303      0.31737640     -1.37310466
H      -0.98046230      1.29087893     -1.91800438
H      -0.15767634     -1.72245951      1.11557764
H      -0.79177865     -0.17978252      1.63405568
H      -2.34604711     -2.31544594      0.06678729
H      -3.02550863     -0.77917480      0.63642196
H      -2.46309599     -1.98151485      1.79726374
H       1.82167154     -1.52507741      0.12069924
H       4.64931197      1.23384793      0.49203479
H       3.07722725      1.72069193     -0.02686265
