45
C=CCN1CCC23c4c5ccc(O)c4OC2C(=O)CCC3(O)C1C5
C       5.38973323      0.04791211      0.47868022
C       4.15572042     -0.47187240      0.53842588
C       3.16133382     -0.43176615     -0.58988705
N       2.03830888      0.48077908     -0.34904133
C       1.25306518      0.68302494     -1.58109998
C       0.10778860     -0.31883874     -1.80731345
C      -0.74154401     -0.52802372     -0.53231996
C      -1.40921530      0.75157537     -0.16879501
C      -0.88124088      1.75844507      0.61926688
C      -1.67771146      2.88965486      0.80946843
C      -2.96492758      2.96188147      0.22994468
C      -3.47307851      1.89369121     -0.51189382
O      -4.73554990      1.95414799     -1.01106067
C      -2.68377669      0.78384479     -0.68829324
O      -3.02406710     -0.39304071     -1.31077408
C      -2.01891090     -1.33663299     -0.79953971
C      -2.60656804     -2.02564779      0.44560463
O      -3.80638080     -2.30092870      0.53419224
C      -1.65460616     -2.45781668      1.53825286
C      -0.64318211     -1.36269573      1.86850837
C       0.16296836     -0.97825127      0.61608586
O       0.83803121     -2.18677411      0.22741424
C       1.18483023      0.19931216      0.84392552
C       0.45710272      1.53108423      1.27888669
H       5.74623753      0.56789693     -0.40544455
H       6.06720047     -0.02505644      1.32366700
H       3.86085136     -0.98640301      1.44775731
H       2.83514611     -1.45004897     -0.81923468
H       3.69935340     -0.09459811     -1.48671765
H       1.90169476      0.68824035     -2.46674934
H       0.84145410      1.69952441     -1.55727625
H      -0.51048999      0.04506252     -2.63860575
H       0.52512795     -1.27876713     -2.13686902
H      -1.32144032      3.71933500      1.41594553
H      -3.57958185      3.84475217      0.38672607
H      -4.90661663      1.08123305     -1.41455126
H      -1.85611393     -2.11487302     -1.55411307
H      -2.23832552     -2.68733601      2.43689402
H      -1.16393362     -3.38302863      1.21873667
H      -1.16873525     -0.50510444      2.30112170
H       0.03492736     -1.74326044      2.64253624
H       1.56775560     -2.33312367      0.85639593
H       1.84151874     -0.06398938      1.68026824
H       1.11017176      2.39481446      1.10212852
H       0.28567475      1.48166603      2.36220714
