63
CCCCCCCCCCCCCCCC[N+](C)(C)C.[Cl-]
C       7.62374994      2.78600162     -0.78230314
C       6.88830498      2.05472429      0.32949961
C       6.77409481      0.55831278      0.03585881
C       6.02740269     -0.17015394      1.15517924
C       5.97910659     -1.68925105      0.96615592
C       5.28945528     -2.17952547     -0.31115506
C       3.85051757     -1.69753806     -0.51708374
C       2.89748217     -2.13623707      0.59665458
C       1.45632430     -1.72167521      0.28721464
C       0.50347362     -2.15555362      1.40332566
C      -0.96814976     -1.86200148      1.09386649
C      -1.27916533     -0.36586242      0.99975908
C      -2.77976829     -0.06091081      0.92252240
C      -3.43071213     -0.55052633     -0.37401278
C      -4.93600942     -0.25896485     -0.44881451
C      -5.24489769      1.23776370     -0.52602001
N      -6.74043509      1.55152140     -0.73351532
C      -7.59348540      0.98903924      0.39728840
C      -7.24563004      1.01946848     -2.07003208
C      -6.89782895      3.07635092     -0.73877558
Cl      0.00000000      0.00000000      0.00000000
H       7.69634409      3.85319094     -0.55073034
H       7.09735632      2.68046377     -1.73626528
H       8.63883616      2.39502830     -0.90463057
H       7.42114169      2.20939928      1.27492195
H       5.88836795      2.48876188      0.44540649
H       6.25137380      0.41967567     -0.91713735
H       7.77680322      0.12897861     -0.07744428
H       6.52624526      0.03595415      2.11063406
H       5.01151447      0.23067067      1.24719445
H       5.48574838     -2.13409190      1.83855460
H       7.00512210     -2.07872942      0.97262073
H       5.88513028     -1.88186861     -1.18232431
H       5.29704709     -3.27689111     -0.30507838
H       3.82910098     -0.60641021     -0.61734333
H       3.49246958     -2.10052377     -1.47291519
H       2.94892602     -3.22515008      0.71615531
H       3.20144225     -1.68906124      1.54972632
H       1.41658280     -0.63393918      0.16091840
H       1.14028865     -2.17197268     -0.66147605
H       0.60899994     -3.23549264      1.56558277
H       0.78667274     -1.66660235      2.34340972
H      -1.57939205     -2.30664780      1.88883932
H      -1.24391186     -2.36598134      0.16082139
H      -0.87416123      0.13945657      1.88523137
H      -0.77954327      0.07109333      0.12772932
H      -2.90031743      1.02495595      1.00605762
H      -3.29058270     -0.50420170      1.78572599
H      -3.30029036     -1.63496711     -0.46249433
H      -2.92588420     -0.09896369     -1.23654728
H      -5.42420282     -0.70996177      0.42181801
H      -5.32116514     -0.77215763     -1.33569304
H      -4.70666911      1.70109088     -1.36155028
H      -4.95179820      1.74283541      0.40085467
H      -8.61788476      1.35263196      0.27075515
H      -7.17930317      1.33525336      1.34853416
H      -7.58210074     -0.10239548      0.34190715
H      -7.25689846     -0.07252842     -2.03888899
H      -6.58093618      1.38027687     -2.86015643
H      -8.26294458      1.39115989     -2.22702294
H      -7.95462792      3.31719895     -0.88877322
H      -6.29411880      3.48262207     -1.55582785
H      -6.55261066      3.46285750      0.22484731
