43
CN1C2CC(OC(=O)C(CO)c3ccccc3)CC1C1OC12
C      -4.49898766     -0.66725086      1.77871130
N      -3.32951614     -0.22826070      1.02654837
C      -3.55439188      1.01373615      0.25240255
C      -2.13704261      1.59525855      0.08713386
C      -1.18433142      0.60761066     -0.62787401
O       0.17071866      1.01856771     -0.35966389
C       1.11622703      0.59792703     -1.24841524
O       0.88594617     -0.05579655     -2.25855581
C       2.49729274      1.02861647     -0.78978363
C       3.40576680      1.21881094     -2.01120222
O       4.58861943      1.94026752     -1.66036383
C       3.08833410      0.05299592      0.21664494
C       3.50459216      0.51429402      1.47485378
C       4.05845196     -0.36542306      2.40619449
C       4.20339640     -1.71477294      2.09238639
C       3.79434703     -2.18670934      0.84734753
C       3.24038817     -1.30960913     -0.08638487
C      -1.39818328     -0.86544564     -0.19988838
C      -2.88975587     -1.19789208     -0.00315045
C      -3.66774873     -0.84594831     -1.25029151
O      -5.05219587     -0.49792010     -1.11961890
C      -4.09177198      0.56551242     -1.08718150
H      -4.26173883     -1.58169403      2.33383826
H      -4.76467609      0.08831730      2.52649923
H      -5.38864339     -0.86568433      1.17638024
H      -4.21250168      1.72798660      0.75752528
H      -1.72421412      1.86474659      1.06891085
H      -2.17292912      2.52929060     -0.48789136
H      -1.37351739      0.69960955     -1.70631836
H       2.38896673      2.01378117     -0.31489785
H       2.89360221      1.80681315     -2.78096337
H       3.70362366      0.27036418     -2.47176632
H       5.09818135      1.37422873     -1.05159803
H       3.39974778      1.56430207      1.74200811
H       4.37490807      0.00252867      3.37904337
H       4.63266622     -2.39926724      2.81948553
H       3.90467510     -3.24045241      0.60344762
H       2.92554277     -1.70446330     -1.05132049
H      -0.96528072     -1.52816334     -0.95920103
H      -0.84122540     -1.06563005      0.72552741
H      -3.01998619     -2.24198509      0.29908725
H      -3.29769089     -1.22573994     -2.18809680
H      -4.04966532      1.27153910     -1.89954855
