36
CCCCCCCCCCCO
C      -5.84930998      0.75315203      0.64666440
C      -4.34709782      0.67713822      0.86816419
C      -3.64618849     -0.03804929     -0.28667251
C      -2.13456934     -0.11289591     -0.05963275
C      -1.43508274     -0.82602537     -1.21896273
C       0.06688888     -1.02670045     -0.99167942
C       0.84984667      0.28751881     -0.92993812
C       2.37031524      0.09064979     -0.93817508
C       2.89797380     -0.60450682      0.31960749
C       4.41854878     -0.80567068      0.30758039
C       5.23155810      0.48365770      0.32778876
O       4.89773486      1.25220423      1.47396754
H      -6.33031616      1.26826161      1.48404470
H      -6.28540882     -0.24781887      0.56786384
H      -6.08331198      1.30340397     -0.27028765
H      -3.94767753      1.69239857      0.97499170
H      -4.14848976      0.14963135      1.80837162
H      -3.85073356      0.49134086     -1.22529132
H      -4.05304183     -1.05120901     -0.39171640
H      -1.93015608     -0.64555818      0.87692158
H      -1.73851773      0.90284625      0.05019264
H      -1.59494914     -0.26665502     -2.14877854
H      -1.89337521     -1.81256234     -1.36197730
H       0.21471625     -1.59935584     -0.06923387
H       0.45761091     -1.63955301     -1.81325401
H       0.56729229      0.85494350     -0.03595270
H       0.58188611      0.90446366     -1.79655596
H       2.66282439     -0.47936665     -1.82818394
H       2.83076248      1.08073200     -1.03008605
H       2.43632823     -1.59409464      0.41231754
H       2.60240640     -0.03609775      1.20932283
H       4.67853140     -1.39260596      1.19752435
H       4.70536088     -1.40183062     -0.56644483
H       5.05343288      1.08580844     -0.56769159
H       6.29955669      0.24665323      0.37237009
H       5.44465091      2.05575220      1.44825939
