13
CNCC(=O)O
C      -1.58222145      0.81797696     -0.28317959
N      -0.57136013     -0.00684980      0.37800496
C       0.61197790     -0.15921085     -0.51372442
C       1.76495428     -0.75155054      0.29470066
O       2.76843979     -1.25459698     -0.18443807
O       1.55657394     -0.62189613      1.63124279
H      -1.20931820      1.83209918     -0.45872583
H      -1.89712475      0.37939527     -1.23567377
H      -2.46334673      0.89691272      0.36097898
H      -0.97721848     -0.94002524      0.51240821
H       0.94552036      0.81419270     -0.88802360
H       0.37341390     -0.83149861     -1.34342580
H       0.67970958     -0.17494868      1.72985548
