43
COC[P+](c1ccccc1)(c1ccccc1)c1ccccc1.[Cl-]
C      -2.09962722     -0.76562338      3.51101513
O      -1.26777528     -0.85436995      2.36345570
C      -1.25458738      0.36721251      1.62969406
P      -0.17660165      0.13517548      0.18227904
C       1.52032926      0.08049851      0.73060626
C       2.51415110      0.85478906      0.11640518
C       3.84061734      0.79291815      0.54938378
C       4.19417618     -0.05210284      1.59778515
C       3.22235596     -0.83985449      2.20813623
C       1.89696777     -0.77579512      1.77407289
C      -0.61955301     -1.36570297     -0.66958537
C       0.35850036     -2.15151254     -1.29462882
C       0.00935042     -3.31468274     -1.98335292
C      -1.32482894     -3.70530692     -2.06106915
C      -2.30924713     -2.93176299     -1.45158951
C      -1.95843152     -1.76886333     -0.76302020
C      -0.45629248      1.55789423     -0.86469086
C      -0.38624472      2.85000626     -0.32185619
C      -0.59994456      3.97443600     -1.12071043
C      -0.88472256      3.82211226     -2.47495703
C      -0.95105483      2.54647593     -3.02967094
C      -0.73612269      1.42202141     -2.23006001
Cl      0.00000000      0.00000000      0.00000000
H      -2.06976254     -1.72559454      4.03322573
H      -3.13372634     -0.55837856      3.21936927
H      -1.73559935      0.01252378      4.18875634
H      -0.86882621      1.17781111      2.25635935
H      -2.26909196      0.61235622      1.29853186
H       2.26772065      1.51054213     -0.71495862
H       4.59764735      1.40204086      0.06254869
H       5.22634006     -0.10283259      1.93303523
H       3.49381349     -1.51071180      3.01879482
H       1.15517244     -1.41376337      2.24929167
H       1.40538558     -1.86066864     -1.25009878
H       0.78132909     -3.91462528     -2.45769859
H      -1.59659447     -4.61150848     -2.59516418
H      -3.35152855     -3.23329194     -1.51028033
H      -2.74104682     -1.17662669     -0.29725418
H      -0.14789771      2.98854092      0.73002673
H      -0.53909167      4.96898195     -0.68666266
H      -1.05021430      4.69610536     -3.09909940
H      -1.16827585      2.42363570     -4.08763012
H      -0.78716732      0.43750132     -2.68873481
