44
NCCNCCNCCNCCNCCN
N       4.84294533      2.25430502      2.47082757
C       3.86007621      2.30033623      1.38733343
C       3.90410200      1.02251876      0.52888796
N       2.90324661      1.08920566     -0.53788663
C       2.94269602     -0.07865649     -1.43069055
C       2.51788215     -1.42381576     -0.79913244
N       1.30131136     -1.29788572      0.01663470
C       0.85306228     -2.62144240      0.48448135
C      -0.40843778     -2.50401923      1.36920723
N      -1.44714790     -1.62148624      0.81219771
C      -2.15213996     -2.25710522     -0.31822902
C      -3.37435796     -1.42278563     -0.76193000
N      -3.04566542      0.00622361     -0.86557821
C      -4.23423982      0.79802913     -1.19453293
C      -3.89586590      2.30005408     -1.22209150
N      -5.08158592      3.12289199     -1.46943839
H       5.78078707      2.23145200      2.06972123
H       4.78786737      3.12326060      3.00176196
H       2.86272004      2.41879909      1.82635274
H       4.05500527      3.18025730      0.76362731
H       3.72632494      0.15546265      1.17510365
H       4.90423066      0.91961686      0.09248932
H       1.96393072      1.15062230     -0.14033508
H       3.93871148     -0.17991344     -1.87827673
H       2.25859592      0.13545441     -2.26188071
H       3.33617627     -1.80682673     -0.17680446
H       2.35568502     -2.14227462     -1.61168497
H       1.51137076     -0.71702056      0.82938011
H       0.62620146     -3.25887559     -0.37906863
H       1.64408534     -3.11179249      1.06564959
H      -0.10821554     -2.06966569      2.33113894
H      -0.81213041     -3.49879385      1.59621062
H      -0.94480024     -0.82277926      0.40285892
H      -2.49777549     -3.26229026     -0.04759531
H      -1.46871991     -2.35645290     -1.16855261
H      -4.17335400     -1.56345737     -0.02353144
H      -3.73277263     -1.80108650     -1.72692416
H      -2.68752799      0.29071988      0.04923725
H      -5.02265893      0.61665105     -0.45209819
H      -4.61941800      0.49939857     -2.17796805
H      -3.45402770      2.60240036     -0.26672754
H      -3.15613721      2.50090501     -2.00548422
H      -5.74820296      2.99586651     -0.70862923
H      -4.81183260      4.10399488     -1.45402388
