82
CC1(C)CC(N(C=O)CCCCCCN(C=O)C2CC(C)(C)NC(C)(C)C2)CC(C)(C)N1
C       5.79334062     -2.36743670      0.46480074
C       6.03045396     -1.31484705     -0.63305565
C       6.34501018     -2.09766536     -1.93031246
C       4.76838115     -0.46519494     -0.88064746
C       4.55336053      0.58724014      0.21173391
N       3.31869833      1.37519695      0.01172673
C       3.13549592      2.17134206     -1.10652310
O       3.91712063      2.31790170     -2.03575472
C       2.28512904      1.31877762      1.04313573
C       1.54586012     -0.02256511      1.09203559
C       0.75259157     -0.37491279     -0.17130906
C      -0.38321245      0.58556771     -0.53978877
C      -1.45496438      0.79832334      0.53454623
C      -2.27039681     -0.44478241      0.90880272
N      -3.12058584     -0.94125631     -0.17514338
C      -2.70072842     -2.03554449     -0.91994626
O      -3.38406644     -2.67490861     -1.70948493
C      -4.54739799     -0.55625868     -0.26061946
C      -4.80916001      0.94006571     -0.07570172
C      -6.30457491      1.29442377     -0.20186540
C      -6.50843864      2.72384722      0.34675543
C      -6.75723134      1.31064012     -1.67343098
N      -7.14853943      0.42797653      0.62947978
C      -6.89306680     -1.01844912      0.64492630
C      -7.54015013     -1.73548949     -0.55362161
C      -7.58899421     -1.54906936      1.91736584
C      -5.39122092     -1.34501591      0.74785879
C       5.80077771      1.46894267      0.32829007
C       7.07548911      0.64261736      0.59232699
C       8.29918801      1.56090844      0.36118811
C       7.15089050      0.17502344      2.05694139
N       7.21788271     -0.48614413     -0.34793481
H       5.05912789     -3.11257064      0.13520748
H       6.71683202     -2.90792421      0.70305873
H       5.40271728     -1.94610204      1.39189127
H       7.22883536     -2.73525471     -1.80809341
H       5.50642994     -2.74479129     -2.21401422
H       6.53572772     -1.42337975     -2.77424346
H       4.85459929      0.02863388     -1.85640102
H       3.88537034     -1.11304515     -0.94984837
H       4.42095616      0.06725239      1.16617796
H       2.16785975      2.69881925     -1.09875953
H       1.57024466      2.13574172      0.89839358
H       2.77561845      1.50421008      2.00640226
H       2.26678809     -0.82920096      1.27197575
H       0.87626100     -0.02477971      1.95939889
H       1.43827528     -0.43802241     -1.02487407
H       0.34820739     -1.38480409     -0.04504049
H       0.04332249      1.56263460     -0.79341468
H      -0.85871263      0.22628973     -1.46030263
H      -2.12716645      1.58709755      0.18150650
H      -0.98630997      1.19502113      1.44218772
H      -2.90207448     -0.22283581      1.77527161
H      -1.59531730     -1.24718861      1.22668326
H      -1.64320010     -2.28972143     -0.74932477
H      -4.87244259     -0.83125301     -1.26990767
H      -4.22895879      1.50926245     -0.81268736
H      -4.44836180      1.25485503      0.91222672
H      -5.89202473      3.44758496     -0.19929793
H      -6.23280577      2.79214244      1.40614314
H      -7.55339559      3.04393037      0.25597016
H      -6.54098451      0.37916501     -2.19840562
H      -7.83379827      1.50002048     -1.75732256
H      -6.24479580      2.10640003     -2.22761574
H      -8.13610596      0.61320839      0.45274816
H      -8.59091686     -1.44548869     -0.67256690
H      -7.51888674     -2.82317603     -0.41253370
H      -7.02939412     -1.53599161     -1.49722376
H      -7.20248619     -1.06039835      2.82020710
H      -8.67173071     -1.37787648      1.88584732
H      -7.42826713     -2.62731307      2.03425608
H      -5.03496788     -1.11969662      1.76234087
H      -5.23156015     -2.42251253      0.60995956
H       5.93240501      2.04658125     -0.59505335
H       5.65591839      2.20873838      1.12652254
H       8.27020330      2.43146065      1.02702986
H       9.23965706      1.02994794      0.55163213
H       8.33341680      1.93893588     -0.66776429
H       7.27623838      1.03093202      2.73150862
H       8.00720736     -0.49041709      2.21741649
H       6.25397331     -0.34732440      2.39143862
H       7.55153042     -0.10705120     -1.23767338
