8
O=C([O-])C(F)(F)F.[K+]
O       1.57368427      1.04304608     -0.23823016
C       0.94335679     -0.04396056     -0.02925816
O       1.45763061     -1.19747190      0.14611290
C      -0.61855412      0.03609643      0.01809234
F      -1.08263048      1.30262134     -0.17087753
F      -1.09503141     -0.39317212      1.22053270
F      -1.17845567     -0.74715929     -0.94637210
K       0.00000000      0.00000000      0.00000000
