29
CCOC1=C([N+](=O)[O-])CN(C(C)C)C1=O
C       4.44831985      1.13773666     -0.82053373
C       2.99230313      1.12429360     -0.39059759
O       2.43007229     -0.12619126     -0.78499518
C       1.13288169     -0.35253781     -0.42514080
C       0.40098333     -1.44822495     -0.63412189
N       0.86487880     -2.63259966     -1.28556756
O       0.02157008     -3.52262734     -1.46155876
O       2.04878799     -2.71463210     -1.62710413
C      -0.98911819     -1.41110089     -0.15414633
N      -1.00599324     -0.10874013      0.47259347
C      -2.22639391      0.54371576      0.94790461
C      -3.12480056     -0.40549947      1.73734748
C      -2.99151687      1.18255585     -0.21143406
C       0.18709726      0.57633224      0.26328111
O       0.41599370      1.73199671      0.57217096
H       4.53155290      1.00488001     -1.90433573
H       4.92844698      2.08001290     -0.54208865
H       4.99519758      0.31087792     -0.35530907
H       2.94040813      1.23907066      0.69796351
H       2.46635347      1.94709147     -0.88710497
H      -1.20835381     -2.17511380      0.59708037
H      -1.71704543     -1.43615599     -0.97042512
H      -1.91405052      1.35295602      1.61978067
H      -2.57258383     -0.86336285      2.56508139
H      -3.98100901      0.13194278      2.15840357
H      -3.51311172     -1.21286237      1.10717978
H      -3.33468531      0.42857137     -0.92792906
H      -2.35766140      1.89082213     -0.75581807
H      -3.86852338      1.72679252      0.15419605
