42
O=C(N[C@H](C(=O)O)C1CCCCC1)OCc1ccccc1
O       1.76265145      1.16270658      1.30257356
C       1.34457033      0.05703510      0.99662429
N       0.05130382     -0.23102129      0.68010045
C      -1.02469936      0.72445747      0.93588174
C      -1.48818798      0.52746206      2.38226534
O      -1.47022170     -0.51982207      3.01297596
O      -1.96879460      1.65239326      2.94774410
C      -2.15927406      0.56405006     -0.10007217
C      -3.13977439      1.74997286     -0.05961963
C      -4.21876251      1.62557163     -1.13397493
C      -4.96672778      0.30080144     -1.02730008
C      -4.01017432     -0.88672731     -1.05369164
C      -2.92791659     -0.76569984      0.01895456
O       2.07113050     -1.08127275      0.94134045
C       3.46523083     -0.94228125      1.23746136
C       4.24837856     -0.85920448     -0.04690391
C       4.58757166      0.38727072     -0.59101657
C       5.29734708      0.46643184     -1.79007804
C       5.66780364     -0.69814209     -2.46003566
C       5.32430586     -1.94272261     -1.93500067
C       4.61391082     -2.02390082     -0.73613605
H      -0.15801239     -1.21987453      0.72117715
H      -0.59430476      1.73067798      0.85875676
H      -2.19536367      1.38400974      3.86290260
H      -1.68600626      0.57470689     -1.09345173
H      -2.59591850      2.69082434     -0.20482460
H      -3.62695282      1.80843531      0.92066223
H      -3.75778192      1.70700536     -2.12601805
H      -4.92709955      2.45667232     -1.04209546
H      -5.68471849      0.21487541     -1.85061513
H      -5.54517456      0.28246660     -0.09540057
H      -4.57266682     -1.81543843     -0.90510699
H      -3.53822724     -0.95416446     -2.04166649
H      -2.24221729     -1.61479621     -0.07654508
H      -3.40146959     -0.84474988      1.00488123
H       3.77094099     -1.83352973      1.79806874
H       3.67915718     -0.08998308      1.89424713
H       4.29273832      1.30474326     -0.08405802
H       5.55622739      1.43786046     -2.20302980
H       6.21868505     -0.63528129     -3.39465004
H       5.60586243     -2.85065612     -2.46178644
H       4.34263126     -3.00116244     -0.34317374
