27
CCCCC(CC)CO
C      -4.00597395      0.22920002     -0.28964176
C      -2.74208025      0.76341101      0.36528893
C      -1.49519371      0.04492201     -0.15359665
C      -0.22683081      0.58350482      0.51565174
C       1.08260955      0.00920704     -0.07565531
C       2.27559802      0.74028092      0.58200721
C       3.62772987      0.37158547     -0.01233454
C       1.17743232     -1.51680488      0.07860414
O       1.15439412     -1.88542791      1.45011731
H      -4.13380896     -0.83822243     -0.08324806
H      -3.97417378      0.36823727     -1.37499069
H      -4.88427513      0.75702834      0.09492099
H      -2.81887759      0.63780594      1.45159370
H      -2.66256559      1.83867745      0.16740384
H      -1.59818377     -1.02801760      0.04177606
H      -1.42235009      0.17518718     -1.23994718
H      -0.27182848      0.38471846      1.59389636
H      -0.21234308      1.67542178      0.40185716
H       1.09723161      0.23708662     -1.14979890
H       2.29343398      0.54807430      1.66160262
H       2.14031168      1.82249211      0.46036639
H       4.40798911      1.01641227      0.40509295
H       3.62843469      0.50009885     -1.09919884
H       3.90056446     -0.66227854      0.21743155
H       0.34673168     -2.01647666     -0.42867902
H       2.09959919     -1.90103318     -0.36776928
H       1.21642490     -2.85509064      1.48650730
