22
CCN(CC)CC
C      -0.96797865      2.28060446     -0.21204671
C       0.02294470      1.39721726      0.54116975
N      -0.00242369      0.00035957      0.06355648
C      -1.17612160     -0.71328581      0.60495490
C      -1.52634697     -1.95070993     -0.21709288
C       1.24574527     -0.69768152      0.43068233
C       2.40762779     -0.31701721     -0.48297119
H      -0.79749850      2.22800308     -1.29266863
H      -2.00740999      2.00548621     -0.01358025
H      -0.84204905      3.32438785      0.09483110
H      -0.16569509      1.44991049      1.62096273
H       1.00991195      1.84322908      0.37838131
H      -2.06370724     -0.07214307      0.57926519
H      -1.02277125     -0.98675050      1.65662796
H      -1.67092592     -1.69288909     -1.27170183
H      -2.46094662     -2.38778986      0.15033159
H      -0.75723313     -2.72531232     -0.15423477
H       1.51008064     -0.51092909      1.47928462
H       1.12562829     -1.78175716      0.33126051
H       3.28181218     -0.93344804     -0.24774722
H       2.70514187      0.72866712     -0.36667396
H       2.15221500     -0.48815151     -1.53418661
