47
C[C@]12CC[C@H]3[C@@H](CCC4=CC(=O)CC[C@@]43C)[C@@H]1CCC2=O
C      -2.87911033     -0.39751368      1.48115407
C      -2.55355019     -0.83495621      0.04111347
C      -1.64928116     -2.06270408      0.02457456
C      -0.23298208     -1.71069131      0.51607484
C       0.40469223     -0.49589483     -0.21660892
C      -0.57076206      0.72335792     -0.29190307
C       0.04015443      1.83371295     -1.15490175
C       1.38898633      2.27954080     -0.60481651
C       2.34865365      1.12379370     -0.44547969
C       3.59305971      1.22195652     -0.94683609
C       4.61414681      0.17487113     -0.71494254
O       5.72688175      0.29330267     -1.22161174
C       4.26723670     -0.95752445      0.21413930
C       2.79191624     -1.31103012      0.09359435
C       1.83467653     -0.10312757      0.32035598
C       1.81289638      0.24326381      1.82608505
C      -1.90700197      0.23682740     -0.85946585
C      -3.03181797      1.23295215     -1.12008319
C      -4.22919887      0.32032591     -1.42510231
C      -3.88130022     -0.95963271     -0.68407465
O      -4.59875822     -1.95056276     -0.65782292
H      -3.57975124      0.44376731      1.51402250
H      -1.99118453     -0.10603460      2.04817635
H      -3.35901336     -1.21919570      2.02668148
H      -2.06809783     -2.86155373      0.64867839
H      -1.58786416     -2.47576797     -0.99077790
H       0.39465464     -2.59878053      0.38325517
H      -0.27398582     -1.52082897      1.59335703
H       0.54668824     -0.82787903     -1.25836909
H      -0.73232418      1.13251272      0.71139335
H      -0.63003689      2.70061867     -1.18494577
H       0.15889952      1.48683824     -2.18959214
H       1.80155167      3.04959613     -1.26826766
H       1.24629650      2.75955844      0.37124661
H       3.94024694      2.09023685     -1.49654430
H       4.53362571     -0.66879231      1.23566334
H       4.86921715     -1.83030202     -0.06201702
H       2.62510671     -1.72482077     -0.91094084
H       2.57033364     -2.11849169      0.80169445
H       2.77601638      0.64703553      2.15983458
H       1.05423175      0.99395502      2.06818306
H       1.60891757     -0.63984626      2.44052140
H      -1.68557384     -0.21740523     -1.84114295
H      -2.82036280      1.89619748     -1.96454544
H      -3.22755825      1.86055305     -0.24395934
H      -5.16424293      0.74636926     -1.05536733
H      -4.29532827      0.10219285     -2.49485890
