29
O=C(O)CCC(=O)c1ccc2ccccc2c1
O      -5.47880719     -1.31996811     -0.39632767
C      -4.71254635     -0.62138202      0.25090002
O      -4.45197399     -0.84530369      1.55575154
C      -3.96991872      0.55395499     -0.33282231
C      -2.50439246      0.22008816     -0.59161351
C      -1.68288146      0.33609612      0.67957738
O      -2.23322996      0.45722534      1.77650729
C      -0.19339210      0.27802590      0.59499491
C       0.54805384      0.53730030      1.75250878
C       1.94374733      0.49586551      1.72094203
C       2.62334562      0.19181127      0.53277799
C       4.02564685      0.14630204      0.48578690
C       4.68932914     -0.16044462     -0.70277529
C       3.96017303     -0.42579034     -1.85778723
C       2.56522653     -0.38457205     -1.82761258
C       1.88070327     -0.07649344     -0.64033511
C       0.47540242     -0.03145255     -0.59592056
H      -3.75524862     -0.24892403      1.92809675
H      -4.45733570      0.79767377     -1.28492383
H      -4.10520174      1.42774173      0.31432836
H      -2.40138048     -0.79473453     -0.99044454
H      -2.11454525      0.94186725     -1.31781969
H       0.04713101      0.77445083      2.68946936
H       2.49679322      0.70210646      2.63525565
H       4.61405301      0.34903409      1.37819012
H       5.77572123     -0.19313968     -0.72520833
H       4.47695079     -0.66615949     -2.78358120
H       2.01727173     -0.59686471     -2.74321318
H      -0.07869499     -0.24984315     -1.50470203
