17
CC(N)C(O)C(=O)O
C      -1.46048940     -0.06221286     -1.25263674
C      -0.81340636     -0.08112181      0.12632189
N      -0.47118063     -1.45751975      0.54926998
C       0.40671068      0.84922880      0.29111487
O       0.95921718      0.62024759      1.61482304
C       1.54019494      0.61946721     -0.71233388
O       1.42051405      0.52952915     -1.92340208
O       2.74622602      0.55372203     -0.08565023
H      -2.42185182     -0.58800030     -1.23180781
H      -1.65095451      0.96568397     -1.57813530
H      -0.84144378     -0.55419969     -2.00904876
H      -1.56371891      0.26537364      0.84918467
H       0.08692020     -1.90308113     -0.18680011
H      -1.33134939     -2.01203817      0.57683593
H       0.11660568      1.90339279      0.23677768
H       0.70032132     -0.31102571      1.81352644
H       2.57768472      0.66255424      0.88233553
