22
CC(O)CNCCN
C      -3.15148236      0.50632612      0.94158577
C      -1.68598567      0.80447142      0.67383656
O      -1.59915830      1.97933462     -0.13689188
C      -0.98659506     -0.36000867     -0.05216920
N       0.39373890      0.03829847     -0.38618546
C       1.08033912     -1.04645707     -1.10966560
C       2.53967291     -0.67015043     -1.43690037
N       3.23409878     -0.06879463     -0.29089092
H      -3.62814402      1.35554863      1.44292746
H      -3.26806540     -0.38126394      1.57058512
H      -3.69762822      0.34832877      0.00509871
H      -1.17634124      1.01860357      1.62038205
H      -0.72833853      1.90634569     -0.57932860
H      -0.99430049     -1.25540379      0.57976903
H      -1.52448628     -0.58022163     -0.98226609
H       0.91452723      0.17751309      0.48478513
H       0.55609297     -1.27405940     -2.04489538
H       1.08210680     -1.95327804     -0.49190608
H       3.08064703     -1.56582153     -1.76003940
H       2.55679153      0.04441896     -2.26798445
H       2.80665521      0.84250909     -0.11818561
H       4.19585511      0.13376070     -0.56310622
