22
C=C(C)C(=O)Oc1ccccc1
C      -3.03701258     -0.96499174      0.49684929
C      -2.56522910      0.13229948     -0.12014376
C      -3.47403708      1.18415601     -0.68388861
C      -1.10334323      0.40331733     -0.29903351
O      -0.68578991      1.41021453     -0.85516664
O      -0.34945169     -0.62386999      0.24063889
C       1.02721980     -0.43108250      0.11163322
C       1.70633994      0.35469121      1.04126069
C       3.08887714      0.49587359      0.92988831
C       3.77785037     -0.15735539     -0.09503825
C       3.08754824     -0.95692923     -1.00937648
C       1.70495349     -1.10216774     -0.90405765
H      -4.10476536     -1.12898767      0.60899982
H      -2.38853173     -1.73210627      0.90911374
H      -4.53011273      0.93870441     -0.52829057
H      -3.28605883      2.15093667     -0.20512903
H      -3.31558437      1.29082445     -1.76218679
H       1.16755773      0.85724735      1.83817734
H       3.63064936      1.11501073      1.63999103
H       4.85567811     -0.04348501     -0.18090359
H       3.62869013     -1.46560706     -1.80278557
H       1.16455230     -1.72669315     -1.60823565
