28
COC(=O)C1(S(=O)(=O)c2ccc(Br)cc2)CC1
C       3.42399506      1.65136179      0.39321874
O       2.84909801      0.49646211     -0.21873520
C       1.52229750      0.61464706     -0.48853998
O       0.83523954      1.60353028     -0.27912353
C       0.97104090     -0.59440560     -1.09969359
S       0.08283002     -1.66335249      0.05484149
O      -0.54658886     -2.73460960     -0.69677207
O       1.00150435     -1.96691324      1.13550707
C      -1.22503674     -0.65869257      0.71576971
C      -2.40222400     -0.49565832     -0.02191912
C      -3.43946759      0.27846867      0.50146346
C      -3.29632921      0.87164130      1.75671224
Br     -4.70323168      1.91915380      2.46214002
C      -2.12831184      0.69348414      2.49946351
C      -1.08798341     -0.08048525      1.98165606
C       0.42841919     -0.58390903     -2.51132829
C       1.69013274     -1.34257524     -2.20116076
H       3.35401162      2.51382481     -0.27690773
H       4.48079499      1.44417170      0.58262659
H       2.93513960      1.86210538      1.34960461
H      -2.52477901     -0.96998959     -0.99300668
H      -4.35445020      0.40908864     -0.07115393
H      -2.02032189      1.15016499      3.48023199
H      -0.18288394     -0.22170371      2.56853946
H       0.51589131      0.33325959     -3.08443244
H      -0.45717942     -1.16049967     -2.75408610
H       1.65068173     -2.42697238     -2.21428554
H       2.62771123     -0.94159756     -2.57062999
