26
COc1ccc(NC(=O)C2CC2)cn1
C       4.94652290      0.04151975      1.13585839
O       4.38065829     -0.72388624      0.07647485
C       3.00766593     -0.60418918      0.00092859
C       2.38404192     -1.32125684     -1.00576906
C       0.99766615     -1.23351034     -1.12394945
C       0.27327183     -0.43510969     -0.23668212
N      -1.12510250     -0.37833382     -0.39765522
C      -2.01225546      0.34203366      0.36875595
O      -1.76246398      1.04295900      1.33651916
C      -3.42645840      0.17828604     -0.06867494
C      -3.85026499      0.47234206     -1.48992037
C      -4.25350406      1.40312693     -0.38529848
C       0.99637119      0.24557740      0.74008493
N       2.34648256      0.17770331      0.87701188
H       4.57868472     -0.29647835      2.11094392
H       6.02947366     -0.11507854      1.11746946
H       4.76345499      1.11240085      0.99430609
H       2.96661017     -1.93502986     -1.68323905
H       0.50250556     -1.79349666     -1.91155116
H      -1.52087260     -0.92196031     -1.15339128
H      -3.94777212     -0.61485588      0.45867252
H      -4.62017009     -0.15122043     -1.93003368
H      -3.11505712      0.83765819     -2.19838637
H      -5.28971623      1.40739670     -0.06724529
H      -3.77119027      2.37341986     -0.32751010
H       0.52141796      0.88998239      1.47254731
