25
CCc1ccccc1NC(C)=O
C      -1.70008520     -2.09849449      0.04614010
C      -1.32610014     -1.09009848      1.12283310
C      -1.05829812      0.28493884      0.54878469
C      -2.11296039      1.21905347      0.59399786
C      -1.95716503      2.50488366      0.08358835
C      -0.74571532      2.87490950     -0.48358895
C       0.30889705      1.95995724     -0.54430295
C       0.17304174      0.66103691     -0.03770480
N       1.22502526     -0.28408075     -0.10039207
C       2.49871915     -0.11290546     -0.61400093
C       3.32431754     -1.37109601     -0.50067066
O       2.97919288      0.90640788     -1.09498990
H      -2.59996417     -1.78389021     -0.49336642
H      -0.89776076     -2.22429929     -0.68784900
H      -1.90041852     -3.07534768      0.49762750
H      -0.45938805     -1.43945984      1.69527834
H      -2.14227143     -1.03303225      1.85455095
H      -3.07083879      0.94470832      1.03193551
H      -2.77877053      3.21460985      0.12786980
H      -0.61302076      3.87619949     -0.88533764
H       1.23172922      2.30015184     -1.00325800
H       1.02436674     -1.19905463      0.27568754
H       3.68877130     -1.47581397      0.52462958
H       4.17714203     -1.31053381     -1.18297753
H       2.73155427     -2.24875012     -0.77448444
