52
CC1(C)SC2C(NC(=O)C(N)c3ccccc3)C(=O)N2C1C(=O)O.O.O.O
C      -3.16229538      2.25460948      0.41165554
C      -3.48555160      1.15338775     -0.60692198
C      -4.88959800      1.36113187     -1.17975954
S      -2.25675292      1.27299170     -1.99577735
C      -1.03104497      0.28521752     -1.04996112
C      -0.46622139     -0.96664565     -1.76638378
N       0.94431684     -1.31252360     -1.47882614
C       1.99209460     -0.44920759     -1.71942622
O       1.83262004      0.65584320     -2.23105855
C       3.36640740     -0.98278613     -1.24451367
N       3.31987253     -2.46416126     -1.10539725
C       3.78693457     -0.31581891      0.05069304
C       3.23319746     -0.68956749      1.28643402
C       3.61769304     -0.04651544      2.46464606
C       4.55555006      0.98196972      2.42362568
C       5.10678347      1.37091646      1.20506680
C       4.72308465      0.72952914      0.02550846
C      -1.50452776     -1.73610331     -0.90940245
O      -1.94888833     -2.85996547     -0.86629088
N      -1.86281710     -0.60950049     -0.22251170
C      -3.28053497     -0.28098742     -0.08219511
C      -3.72742361     -0.47567131      1.36036847
O      -3.03576049     -0.43090675      2.36477888
O      -5.05806683     -0.67430353      1.46906340
O       0.04190795      0.39561270      0.00000000
O       0.04820896      0.39491932      0.00000000
O       0.06487846      0.39255482      0.00000000
H      -2.17412535      2.12501213      0.86639663
H      -3.89622796      2.26277162      1.22556701
H      -3.19139803      3.24848599     -0.04975473
H      -5.64586922      1.29464283     -0.38959554
H      -4.99373407      2.34861377     -1.64410137
H      -5.13994831      0.60670178     -1.93435140
H      -0.33110002      0.86965189     -0.44518737
H      -0.67021834     -1.03036163     -2.84173757
H       1.20485456     -2.19082904     -1.03088139
H       4.09205417     -0.75972486     -2.03621886
H       3.27993887     -2.86218146     -2.04502451
H       4.22169958     -2.76011967     -0.72702053
H       2.49585281     -1.48809289      1.34034891
H       3.18172708     -0.34793993      3.41346056
H       4.85327184      1.48458813      3.34041100
H       5.83239241      2.17937240      1.17068913
H       5.15465065      1.06097268     -0.91637404
H      -3.84458694     -1.00098916     -0.69344366
H      -5.19830503     -0.81150707      2.43055991
H       0.73818079     -0.27824599      0.00000000
H      -0.78008874     -0.11736671      0.00000000
H      -0.78190616     -0.10493298      0.00000000
H       0.73369720     -0.28998634      0.00000000
H       0.72074422     -0.32078835      0.00000000
H      -0.78562268     -0.07176647      0.00000000
