32
Cn1nc(S(N)(=O)=O)sc1=NS(=O)(=O)c1cccc([N+](=O)[O-])c1
C       2.02351934     -2.36803541     -0.37210861
N       2.25133668     -0.93911411     -0.25223863
N       3.57053205     -0.57731813     -0.06290673
C       3.63999256      0.70790398      0.13879594
S       5.20402833      1.50547590      0.40896945
N       6.42955104      0.33740398      0.37915447
O       5.19960181      2.01840035      1.76178192
O       5.45833719      2.35392025     -0.73510049
S       2.12579811      1.59206451      0.13260775
C       1.28879071      0.05291133     -0.17560355
N       0.02049881      0.17913031     -0.26086620
S      -0.94462319     -1.06015890     -0.56430875
O      -0.72427331     -1.51379236     -1.92284245
O      -0.90900911     -1.99774139      0.53938863
C      -2.56790905     -0.32185281     -0.51842344
C      -3.36698675     -0.30242379     -1.66670981
C      -4.63715053      0.27436557     -1.61397972
C      -5.10749333      0.82689384     -0.41985901
C      -4.29859732      0.79887260      0.72652326
N      -4.79601645      1.37973915      1.98045768
O      -5.94408449      1.84552145      1.98431032
O      -4.03647381      1.37002735      2.95907206
C      -3.02322368      0.22347400      0.68717723
H       1.44907947     -2.60533308     -1.26946702
H       2.97244412     -2.91087988     -0.45805642
H       1.51460660     -2.75387228      0.51477346
H       7.06305504      0.53096844     -0.39833680
H       6.90854158      0.32660742      1.28129250
H      -3.01161883     -0.73073165     -2.60243408
H      -5.26242599      0.29322792     -2.50479938
H      -6.10088150      1.27228153     -0.39903760
H      -2.38894610      0.19206392      1.57144289
