33
O=S(=O)(CCCl)CCOCCS(=O)(=O)CCCl
O      -3.28648237     -1.09346536     -1.36383054
S      -3.45208281     -0.43846598     -0.08125511
O      -3.72367085     -1.20665145      1.11756570
C      -4.74037153      0.77364391     -0.25288965
C      -6.05980231      0.08397001     -0.51614983
Cl     -7.35254905      1.29677959     -0.68879631
C      -2.00938032      0.55118550      0.21687080
C      -0.78792483     -0.32734810      0.39223062
O       0.33857643      0.52654632      0.61310228
C       1.55529693     -0.18940543      0.84709000
C       2.17790033     -0.65401918     -0.45461829
S       3.81480400     -1.31250188     -0.22437398
O       3.75098736     -2.24800999      0.88377727
O       4.28977411     -1.76413815     -1.51922185
C       4.87208738      0.02709553      0.28848173
C       5.08932020      1.07544544     -0.78010820
Cl      3.86344092      2.36454886     -0.68960436
H      -4.77112986      1.35316165      0.67522467
H      -4.46221818      1.43278343     -1.08135145
H      -6.33839455     -0.58294138      0.30530829
H      -6.03164272     -0.50418402     -1.43835450
H      -2.18576278      1.15484099      1.11271180
H      -1.87975777      1.23215101     -0.63026854
H      -0.91490553     -0.99530054      1.25174151
H      -0.62253404     -0.93595377     -0.50270171
H       1.38164739     -1.02196209      1.53883353
H       2.22218886      0.50959262      1.35929606
H       2.21142110      0.13550346     -1.20802509
H       1.58304878     -1.46517728     -0.88865398
H       4.50036018      0.43600343      1.23162017
H       5.83323366     -0.45572382      0.50441500
H       6.05171066      1.57037050     -0.61870449
H       5.08281123      0.67162614     -1.79560716
