15
CCCCO
C       2.16601604     -0.04963936     -0.32423740
C       0.79991431     -0.60563984      0.04447874
C      -0.27515802      0.47641310     -0.00072845
C      -1.64459775     -0.07635206      0.36787576
O      -2.59663992      0.97667654      0.30691807
H       2.46782495      0.74160566      0.36944636
H       2.92061762     -0.84146416     -0.28537155
H       2.16045767      0.36490961     -1.33738748
H       0.54251389     -1.41555016     -0.64796824
H       0.84817670     -1.04094512      1.04940294
H      -0.01840227      1.29593220      0.68223345
H      -0.32157469      0.92437856     -1.00130060
H      -1.64084667     -0.48390838      1.38382879
H      -1.94955377     -0.86224572     -0.33044366
H      -3.45874808      0.59582912      0.54621953
