21
O=NN(CCCl)C(=O)NCCCl
O      -1.89245235      2.75378673     -0.19957102
N      -0.89085713      2.07560283     -0.44701564
N      -0.88855068      0.74539415      0.24034678
C      -2.04646570      0.33572802      1.02950223
C      -3.11568674     -0.31894699      0.16467101
Cl     -4.51606787     -0.79676836      1.15477285
C       0.11012435     -0.18044827     -0.04198411
O       0.06755857     -1.34643228      0.35102986
N       1.15563080      0.27653456     -0.81356575
C       2.29686683     -0.57611329     -1.10614489
C       3.24386458     -0.75389866      0.07932321
Cl      3.95897747      0.80947533      0.56053435
H      -1.70779885     -0.37437342      1.79439764
H      -2.44375736      1.20318798      1.56933095
H      -3.47562755      0.36523999     -0.60974416
H      -2.73456031     -1.21796019     -0.32937154
H       1.33898333      1.27185576     -0.78472249
H       1.92199411     -1.55649553     -1.42099977
H       2.82160569     -0.12954646     -1.95762067
H       4.06658749     -1.42358531     -0.18694071
H       2.72963132     -1.16223656      0.95377186
