26
CC[C@@H](C(N)=O)N1CCCC1=O
C      -2.28127799     -0.25809403     -1.75814615
C      -2.14516833     -0.33265065     -0.24366834
C      -0.96084747      0.49006740      0.28062320
C      -0.95956962      0.53119908      1.82292066
N      -0.26491654      1.57830818      2.36646041
O      -1.47932096     -0.31726283      2.54087227
N       0.34751609     -0.00066184     -0.17536116
C       0.75363886     -1.38241588     -0.06090959
C       2.11752453     -1.39037945     -0.72309335
C       2.69124411     -0.02248646     -0.37848666
C       1.46114037      0.83303015     -0.20076048
O       1.45647295      2.04048489     -0.01630840
H      -1.40673075     -0.68190149     -2.26089653
H      -2.40022586      0.77830677     -2.08984989
H      -3.16156584     -0.82070733     -2.08492166
H      -2.06412327     -1.38189269      0.06329507
H      -3.07209932      0.04475816      0.20659725
H      -1.07190935      1.52575098     -0.06751184
H       0.37189675      2.12417119      1.78819849
H      -0.13034749      1.58736791      3.36776077
H       0.05327655     -2.04851746     -0.56978502
H       0.82377190     -1.64703063      0.99949527
H       2.00349365     -1.47469768     -1.81118157
H       2.75017748     -2.21602087     -0.38574604
H       3.24048870     -0.04924868      0.56755921
H       3.32746087      0.36569588     -1.17715592
