17
Cc1cccc([N+](=O)[O-])c1
C      -2.27773184     -1.10822906     -0.24246408
C      -1.03834013     -0.26903499     -0.13017112
C      -1.13084601      1.12894264     -0.08455742
C       0.01505336      1.91674148      0.05111318
C       1.26973539      1.31642422      0.15372191
C       1.36737600     -0.08032015      0.12376680
N       2.68434401     -0.71880833      0.23954087
O       3.67440505      0.01740879      0.35979234
O       2.73080956     -1.95720478      0.21043940
C       0.21977165     -0.87518412     -0.01235691
H      -2.06879586     -2.04377015     -0.77188068
H      -2.66155441     -1.34331971      0.75497167
H      -3.05546743     -0.58292392     -0.80669388
H      -2.10235965      1.61553282     -0.15591707
H      -0.07304170      3.00063707      0.07945360
H       2.15177849      1.94434661      0.25951795
H       0.29486352     -1.96123842     -0.02827655
