60
COc1cc2c(N)nc(N3CCN(C(=O)OCC(C)(C)O)CC3)nc2c(OC)c1OC
C      -7.89923141     -0.97700745     -1.97060684
O      -7.42104060     -0.80257912     -0.64325515
C      -6.07810102     -0.59946077     -0.47430893
C      -5.15749645     -0.42246628     -1.50320472
C      -3.77430538     -0.24508985     -1.22730538
C      -2.79277568     -0.10127478     -2.20949733
N      -3.10648231     -0.13006959     -3.57527194
N      -1.49479736      0.07663054     -1.94066731
C      -1.11817666      0.09351593     -0.65791111
N       0.21909527      0.27303134     -0.35789492
C       0.69027067     -0.07731881      0.98785866
C       1.95700325     -0.95013681      0.93906641
N       3.01857201     -0.38026020      0.11002518
C       4.33124498     -0.67966861      0.39082204
O       4.68774026     -1.41632557      1.30289337
O       5.20198398     -0.05428938     -0.44299648
C       6.59821387     -0.38858896     -0.29132458
C       7.28409365      0.33298649      0.89659294
C       6.83680661      1.79116373      1.02241290
C       8.80426183      0.25430880      0.72677590
O       6.99522818     -0.31819455      2.14099603
C       2.60580645      0.48631071     -0.99748130
C       1.16894728      0.20441958     -1.47007775
N      -1.99153501     -0.04118540      0.34642648
C      -3.30208646     -0.20688479      0.08580858
C      -4.24353822     -0.35697998      1.11714282
O      -3.88241066     -0.37959226      2.45111592
C      -3.18999899      0.79662828      2.86157754
C      -5.60887180     -0.55983766      0.84175432
O      -6.47639667     -0.78308613      1.88775637
C      -7.10512447      0.43596536      2.27508696
H      -7.78034337     -0.05685794     -2.55282267
H      -8.97019226     -1.19933399     -1.91446284
H      -7.40832297     -1.82461442     -2.46262705
H      -5.48216649     -0.41449977     -2.53966438
H      -2.22613309     -0.03120383     -4.07701811
H      -3.57104394     -0.99555467     -3.82331785
H       0.91516610      0.85766133      1.51882752
H      -0.05634539     -0.61610484      1.58545925
H       1.71743117     -1.93169403      0.50942577
H       2.32926112     -1.11988965      1.95548770
H       6.70517248     -1.47846943     -0.21175903
H       7.07117147     -0.08570120     -1.23315799
H       5.76907286      1.85632377      1.25804597
H       7.35845904      2.29020977      1.84562566
H       7.02710833      2.35129019      0.09981253
H       9.13286654     -0.79038894      0.69078011
H       9.31962806      0.71057440      1.57918073
H       9.13651542      0.75567710     -0.18848385
H       6.11104892     -0.73512026      2.08042090
H       3.29908567      0.37437435     -1.83862398
H       2.68604027      1.51909401     -0.63511483
H       0.91311897      0.93938527     -2.24371894
H       1.13467620     -0.79581451     -1.92287657
H      -2.10942683      0.63617297      2.81971929
H      -3.45495744      0.98686592      3.90616424
H      -3.47309962      1.68272205      2.28086478
H      -6.37097825      1.20714338      2.52635673
H      -7.69796509      0.23303993      3.16996835
H      -7.78174703      0.80004926      1.49588686
