59
CCCCCCC(C/C=C\CCCCCCCC(=O)O)OS(=O)(=O)O
C      -4.15449951     -1.09114668      3.97614661
C      -4.21811875     -0.88907094      2.47036182
C      -3.87021831      0.54979798      2.08741078
C      -3.96935619      0.82262596      0.58251292
C      -3.08442499     -0.05032913     -0.31690568
C      -1.59142297      0.05835498      0.01258436
C      -0.67780912     -0.78625398     -0.89090554
C      -0.73704852     -0.34786050     -2.36762632
C       0.37041391     -0.97090313     -3.17927778
C       1.35860046     -0.34687755     -3.84012840
C       1.59400151      1.13167420     -3.98157432
C       2.74435753      1.63662363     -3.10387015
C       2.35972519      1.69815008     -1.62411028
C       3.52797209      2.14349394     -0.74401318
C       3.12509782      2.40433905      0.71239049
C       2.35139865      1.27912217      1.40574557
C       3.12321697     -0.03752695      1.48623902
C       2.29751007     -1.11082871      2.15751490
O       1.07248649     -1.15455994      2.17168326
O       3.04268629     -2.08335065      2.72152771
O      -1.08383401     -2.14738940     -0.79666702
S      -0.10550786     -3.25863943     -0.13091266
O       1.27341911     -2.85298813     -0.30883617
O      -0.55822265     -4.55705143     -0.57549157
O      -0.43760476     -3.13166750      1.43856244
H      -4.40284576     -2.12710293      4.22876159
H      -4.86668844     -0.43805877      4.49096834
H      -3.15059870     -0.88038136      4.35627114
H      -5.22524760     -1.13494746      2.11532745
H      -3.52449066     -1.59076446      1.99546638
H      -4.55791177      1.23364481      2.60328608
H      -2.86564767      0.79988275      2.44881163
H      -5.01261855      0.69514162      0.26672996
H      -3.72157443      1.87673001      0.40536653
H      -3.25509721      0.26526805     -1.35269570
H      -3.41122205     -1.09392833     -0.25517043
H      -1.43622909     -0.28038854      1.04266054
H      -1.27887081      1.10809683     -0.03225946
H       0.34400799     -0.65567498     -0.52210638
H      -0.69209697      0.74371153     -2.42118079
H      -1.68533374     -0.66060221     -2.81794155
H       0.35914691     -2.06184278     -3.21334983
H       2.08609608     -0.97420725     -4.35732262
H       0.68586223      1.70977485     -3.78266698
H       1.84363639      1.32471789     -5.03181612
H       3.62672713      0.99925051     -3.23642563
H       3.02498680      2.64262175     -3.43915867
H       1.51517118      2.38566567     -1.49573205
H       2.02846159      0.70926722     -1.29871482
H       4.32247778      1.38831227     -0.78002181
H       3.96035133      3.06729085     -1.14877430
H       4.03021789      2.62871520      1.28976934
H       2.50798692      3.31095438      0.74410260
H       2.10162027      1.60696486      2.42294987
H       1.38889891      1.12780763      0.90424974
H       4.04030608      0.12618268      2.06350828
H       3.39437755     -0.40625158      0.49155926
H       4.00392040     -1.98889604      2.57358539
H       0.06940157     -2.36469262      1.80749232
