29
CCS(=O)(=O)C(C)(C)S(=O)(=O)CC
C      -2.16864012      1.70293490     -1.29079828
C      -2.31783806      0.76601333     -0.10897050
S      -1.46756903     -0.80264308     -0.33307408
O      -2.42413702     -1.83328519      0.04131048
O      -0.90394946     -0.84886091     -1.66982555
C      -0.10701078     -0.90937981      0.84454829
C       0.57164498     -2.28331029      0.67956652
C      -0.64329926     -0.82071427      2.28616320
S       1.09986016      0.40840699      0.59560603
O       0.40865969      1.68126511      0.68661437
O       2.19899250      0.14581116      1.51112082
C       1.76818180      0.27615787     -1.06350928
C       2.97184837      1.18492692     -1.24494653
H      -2.70476161      2.63809403     -1.10180815
H      -1.12092424      1.94573340     -1.48700006
H      -2.58385234      1.25532924     -2.19968300
H      -3.37851840      0.52306985      0.02114088
H      -1.99156309      1.23476453      0.81815553
H       1.43081120     -2.39337421      1.34995087
H       0.92796165     -2.44379255     -0.34236332
H      -0.12621470     -3.09854184      0.90286245
H      -1.10384738      0.14889698      2.49611975
H       0.16307736     -0.95338550      3.01661082
H      -1.39619920     -1.59115689      2.48479145
H       0.99455234      0.57530439     -1.77086894
H       2.05984938     -0.76038345     -1.23971942
H       3.34728076      1.11674882     -2.27057547
H       3.78481790      0.90639030     -0.56707116
H       2.71078661      2.22898017     -1.04434772
