23
Clc1cc(Cl)c(Cl)c(Oc2ccccc2)c1Cl
Cl      4.11012049     -1.62654976     -1.53156941
C       3.12256337     -0.50501194     -0.66143635
C       3.57769814      0.81349381     -0.57700297
C       2.84000641      1.77002264      0.12475396
Cl      3.48458350      3.37271352      0.19312613
C       1.63166070      1.41721206      0.73790461
Cl      0.70919500      2.58331055      1.63023428
C       1.16027851      0.09787430      0.62245623
O      -0.01285580     -0.25059453      1.25704624
C      -1.16127659     -0.33017286      0.49504012
C      -1.34771461      0.27202214     -0.75253234
C      -2.56583832      0.12613458     -1.42180865
C      -3.59899299     -0.61279713     -0.84659694
C      -3.41957236     -1.20442806      0.40203811
C      -2.20446057     -1.05952932      1.07237346
C       1.91630136     -0.87621782     -0.05354123
Cl      1.36476516     -2.51960860     -0.10634198
H       4.51648988      1.09404446     -1.05137474
H      -0.57319549      0.86752513     -1.22338222
H      -2.71113500      0.59405133     -2.39238827
H      -4.54546692     -0.72370861     -1.36974902
H      -4.22456121     -1.77755869      0.85455189
H      -2.06859266     -1.52222718      2.04667984
