24
CN(C)C(=O)Nc1ccc(Cl)c(Cl)c1
C      -2.81946484      1.12162141      0.51070418
N      -2.39934498     -0.27412259      0.52746184
C      -3.47932065     -1.24558150      0.46249863
C      -1.13650160     -0.70952736      0.11495830
O      -0.96113838     -1.83283629     -0.34934774
N      -0.13509726      0.21550313      0.31563696
C       1.19915748      0.13927434     -0.13288356
C       1.63783943     -0.76440569     -1.10279000
C       2.97582311     -0.77368747     -1.51282645
C       3.88785588      0.12741744     -0.96205748
Cl      5.52252646      0.06269389     -1.51471794
C       3.45467377      1.04305575      0.00055212
Cl      4.51809955      2.19750455      0.72545706
C       2.11493487      1.04921181      0.40898861
H      -3.46394043      1.30618088      1.37501510
H      -3.38415108      1.30128898     -0.40979732
H      -1.98535355      1.82412912      0.53370384
H      -4.24906411     -0.98211096      1.19372670
H      -3.90529353     -1.23546397     -0.54537146
H      -3.11551003     -2.25279497      0.68650502
H      -0.32323725      0.87732187      1.05272458
H       0.95754107     -1.47386655     -1.56690827
H       3.29418862     -1.49020025     -2.26666450
H       1.79477744      1.76939443      1.15764711
