23
CCCCCCC(=O)O
C      -3.08931525      0.71039813     -0.21241450
C      -2.44326213      0.19873865      1.06578770
C      -1.27550952     -0.75895710      0.81948238
C      -0.07888846     -0.09315646      0.13526755
C       1.09739426     -1.06770453      0.00854276
C       2.29979377     -0.44360446     -0.69902159
C       3.02298364      0.56605713      0.15239318
O       2.90423667      0.75110105      1.35092112
O       3.90472202      1.28870872     -0.56672805
H      -3.97395210      1.30893122      0.02788535
H      -3.40554202     -0.11919360     -0.85256844
H      -2.40493846      1.34627652     -0.78144409
H      -3.20480187     -0.32706089      1.65408148
H      -2.10750963      1.04914533      1.67054958
H      -1.61886399     -1.61038028      0.21928650
H      -0.95512143     -1.16359729      1.78760604
H      -0.36463233      0.25334101     -0.86424227
H       0.22394067      0.78917083      0.71040920
H       0.77169409     -1.94253701     -0.56763886
H       1.38917109     -1.42965297      1.00188134
H       3.01876601     -1.23215605     -0.94789560
H       1.97664578      0.03857216     -1.62821774
H       4.31298921      1.88755990      0.09324113
