15
O=c1[nH]c2nc[nH]c(=O)c2[nH]1
O      -3.59326144      0.07047356     -0.04761993
C      -2.37923964      0.00868132     -0.03619926
N      -1.57626827     -1.14005738     -0.16481173
C      -0.26528560     -0.77604634     -0.09953781
N       0.78380318     -1.63202649     -0.18831197
C       1.94057902     -1.05562108     -0.09934927
N       2.13362301      0.29770697      0.07000849
C       1.09183005      1.19335207      0.16377348
O       1.24073767      2.39808103      0.31417721
C      -0.21305552      0.54815917      0.06403564
N      -1.47107787      1.07156745      0.10866291
H      -1.91919763     -2.07838871     -0.28551057
H       2.87737835     -1.63292108     -0.15563113
H       3.06492721      0.68392223      0.13206473
H      -1.71549252      2.04311728      0.22424921
