26
NC(=O)c1cc(N2CC2)c([N+](=O)[O-])cc1[N+](=O)[O-]
N      -3.33699698      1.59643895     -0.53411558
C      -2.04102572      1.56449149     -0.94939894
O      -1.57723291      2.46353968     -1.63903586
C      -1.17168240      0.44929889     -0.50317620
C       0.17227953      0.77951065     -0.22463280
C       1.11276024     -0.18892579      0.17578527
N       2.46669496      0.09444371      0.48680257
C       3.20266933      1.08396555     -0.30888934
C       2.83638225      1.36765802      1.11237762
C       0.65043627     -1.51491468      0.26779994
N       1.56430300     -2.56374662      0.66785330
O       1.47816057     -2.95513967      1.83934886
O       2.29665672     -3.03764286     -0.20979143
C      -0.66892324     -1.88821104     -0.01220883
C      -1.56362610     -0.88685138     -0.39779520
N      -2.90678609     -1.29619082     -0.72401283
O      -3.06929860     -1.88215341     -1.79888460
O      -3.77939717     -1.05563202      0.12140259
H      -3.89873627      2.38838638     -0.82526817
H      -3.77414284      0.93722406      0.10371223
H       0.47317284      1.82170297     -0.33046294
H       4.21551477      0.77315198     -0.52988084
H       2.66447074      1.56491327     -1.11265559
H       3.59933301      1.25639034      1.87197026
H       2.03631056      2.05672697      1.33777942
H      -0.98129647     -2.92843462      0.06014507
