46
OCC1=C[C@@H](O)[C@@H]2C=CO[C@@H](O[C@@H]3O[C@H](CO)[C@@H](O)[C@H](O)[C@H]3O)[C@H]12
O      -1.67013127      2.19848184      1.69207253
C      -2.74230370      1.31122536      1.96830653
C      -2.98520918      0.45908734      0.77485152
C      -4.14505003      0.30507428      0.12031775
C      -4.00860069     -0.59795656     -1.05889655
O      -4.03711868      0.20713591     -2.22636591
C      -2.63081489     -1.26654573     -0.85036143
C      -2.77603175     -2.64092156     -0.24815775
C      -2.21629388     -2.97248383      0.91837290
O      -1.41208715     -2.16495470      1.66946241
C      -0.86145133     -1.02906549      0.97929003
O       0.25567552     -1.46313307      0.18587006
C       1.41803967     -0.66385060      0.41319934
O       1.19178076      0.67834812      0.00625454
C       2.33633379      1.52542192      0.20904793
C       1.95621836      2.95559996     -0.20268214
O       1.67623345      3.03450268     -1.60093010
C       3.55632133      1.01274025     -0.57361365
O       4.72655520      1.77078763     -0.24328636
C       3.81815579     -0.45691799     -0.23497585
O       4.87119069     -0.95827062     -1.07487635
C       2.55261167     -1.28788950     -0.41493156
O       2.82105941     -2.63931433     -0.00590324
C      -1.86985984     -0.29404512      0.07964161
H      -1.88192731      2.63189966      0.84589501
H      -2.47457898      0.70031728      2.83529728
H      -3.62311192      1.90522077      2.23232060
H      -5.07789539      0.78479467      0.38120582
H      -4.83228084     -1.31789832     -1.10707824
H      -3.85400447     -0.37587747     -2.98181898
H      -2.09327770     -1.36996875     -1.80137742
H      -3.38875020     -3.36950904     -0.77150388
H      -2.36639024     -3.92807355      1.40513433
H      -0.51227869     -0.35730880      1.77214246
H       1.66524608     -0.70877942      1.48271807
H       2.56278794      1.54721895      1.28347176
H       2.76485096      3.65659042      0.02671365
H       1.05161267      3.26870792      0.32923022
H       1.43233150      3.95733675     -1.78598946
H       3.39818255      1.10766538     -1.65475944
H       5.46085256      1.30398944     -0.69188987
H       4.19517718     -0.54918426      0.79151282
H       4.85441990     -1.92893689     -0.94874060
H       2.27897858     -1.33272881     -1.47637834
H       1.94635786     -3.07934708      0.00742227
H      -1.33152530      0.43081493     -0.54617849
