34
CCCCCCCCC(C)C=O
C       4.98696002     -0.67939632     -0.51780609
C       4.35362174      0.34204732     -1.44976962
C       3.19955630      1.11842039     -0.81199837
C       1.99024569      0.24194371     -0.47854987
C       0.82800401      1.08202902      0.05616090
C      -0.38180158      0.20743335      0.39410879
C      -1.54406296      1.05092545      0.92230032
C      -2.73929278      0.21623985      1.40134081
C      -3.42101921     -0.62178252      0.31165921
C      -4.55125459     -1.46057442      0.90262915
C      -4.00492847      0.27626975     -0.75645909
O      -3.66328977      0.23046513     -1.93426875
H       5.31333961     -0.21064842      0.41588216
H       4.29085662     -1.48757805     -0.27535586
H       5.86330710     -1.12993794     -0.99487883
H       4.00742847     -0.16033303     -2.36049147
H       5.12531174      1.05803006     -1.75695847
H       3.55297507      1.62262667      0.09571355
H       2.88991412      1.90589062     -1.51032789
H       1.66917684     -0.29878294     -1.37698950
H       2.26517950     -0.50768293      0.27188100
H       1.15079070      1.62589688      0.95226978
H       0.54098933      1.83128998     -0.69167883
H      -0.09695210     -0.53866102      1.14558177
H      -0.69007417     -0.33642830     -0.50553983
H      -1.86612284      1.76152105      0.15200802
H      -1.19192314      1.65220074      1.77008390
H      -3.47201657      0.90300949      1.84541275
H      -2.40385259     -0.44543840      2.21010178
H      -2.70140836     -1.29855819     -0.16087163
H      -5.31167928     -0.83082244      1.37802076
H      -4.16724848     -2.15849467      1.65379128
H      -5.05079569     -2.04449525      0.12165340
H      -4.76993426      0.99713247     -0.41865523
