27
C/C=C/c1ccc(OC)c(OC)c1
C       4.57597080      0.78681963      0.56599870
C       3.08343607      0.71352689      0.58006040
C       2.39014564     -0.38908447      0.25523063
C       0.92318408     -0.47382817      0.27633706
C       0.32281564     -1.65617165      0.71715274
C      -1.06898247     -1.78877629      0.72848208
C      -1.88243434     -0.74135170      0.28704408
O      -3.25463440     -0.78147019      0.26244915
C      -3.88786043     -1.96062980      0.73663001
C      -1.28798112      0.44945965     -0.17593690
O      -2.15371739      1.42710524     -0.60339363
C      -1.59472886      2.64924953     -1.06180995
C       0.10841878      0.57066675     -0.18258254
H       5.03473248     -0.15693072      0.25460862
H       4.94617052      1.03284737      1.56591089
H       4.90348777      1.56970222     -0.12481840
H       2.56801603      1.61925607      0.89104037
H       2.91315783     -1.30082269     -0.02527864
H       0.93338905     -2.48594865      1.06688173
H      -1.48439895     -2.72402610      1.08748605
H      -3.62164694     -2.82656875      0.12167140
H      -3.65606560     -2.13723260      1.79211899
H      -4.96940193     -1.81565125      0.65446354
H      -1.02927275      3.14848702     -0.26806937
H      -0.97602528      2.49138118     -1.95126996
H      -2.42045287      3.30893439     -1.34554088
H       0.58467865      1.47105710     -0.55473747
