18
Nc1cccc(S(=O)(=O)O)c1
N      -2.54290143     -1.24338073     -0.63244587
C      -1.55086121     -0.33051334     -0.25917086
C      -1.75694228      1.04275020     -0.43212566
C      -0.73490718      1.96338064     -0.17870685
C       0.52383860      1.51492127      0.21181150
C       0.74656952      0.14236578      0.33045261
S       2.35638422     -0.45373154      0.75267866
O       2.30384155     -0.93093841      2.11528261
O       3.33040885      0.52344487      0.31475820
O       2.58753650     -1.72404918     -0.21563719
C      -0.27319167     -0.78028934      0.07411347
H      -2.45105173     -2.15678354     -0.19751625
H      -3.48801870     -0.87913700     -0.55759999
H      -2.72404259      1.41033269     -0.76716293
H      -0.92167965      3.02748856     -0.30127139
H       1.32063370      2.23045795      0.40167097
H       3.34456627     -1.50988758     -0.80116828
H      -0.07018275     -1.84643131      0.14203727
