45
CCN(C(=O)CNC)C1CC(C)S(=O)(=O)c2sc(S(N)(=O)=O)cc21
C       1.95535870     -0.57554326     -2.18412160
C       0.91972113      0.26919699     -1.45479574
N       0.98274324      0.12735408      0.00740549
C       1.95426499      0.72911663      0.80637918
O       1.98827301      0.54873170      2.03026578
C       3.02699299      1.62942140      0.16823538
N       4.34262170      0.98839000      0.34235935
C       5.41419957      1.89014969     -0.05401341
C      -0.03637726     -0.69655405      0.68310576
C      -0.04503629     -2.15850119      0.16804411
C      -1.12947189     -3.02883434      0.83127150
C      -0.94800981     -4.50210764      0.48472990
S      -2.77490350     -2.48245895      0.32183389
O      -3.74189605     -2.84440551      1.33372157
O      -2.96310014     -2.73637419     -1.08982584
C      -2.56192982     -0.72723846      0.44317256
S      -3.94334299      0.25456867      0.35859007
C      -3.01380126      1.67564755      0.57013343
S      -3.91136537      3.20314695      0.60652859
N      -5.10168660      3.09361135      1.78530045
O      -4.59343041      3.31088554     -0.66150761
O      -2.97226910      4.19811846      1.07071104
C      -1.66576173      1.38693427      0.68900064
C      -1.38634921     -0.01568432      0.58710891
H       1.82907449     -1.64154088     -1.96729889
H       2.97748302     -0.30552078     -1.90449031
H       1.85453645     -0.43760944     -3.26568492
H       1.04344979      1.32542108     -1.71247945
H      -0.08052773     -0.00910874     -1.80390398
H       2.98444582      2.58806713      0.69855630
H       2.84871504      1.83223549     -0.88322034
H       4.44519888      0.75766797      1.33528867
H       5.37147415      2.83721344      0.49615817
H       5.37552468      2.09585465     -1.13093229
H       6.38261281      1.42297916      0.15837821
H       0.18485205     -0.75205560      1.75588074
H      -0.19356454     -2.18375141     -0.91751767
H       0.94327928     -2.59488004      0.35854775
H      -1.08715648     -2.91177827      1.92049403
H       0.01685683     -4.86939723      0.84452676
H      -1.73325472     -5.11105931      0.94454368
H      -0.99156309     -4.66628931     -0.59558112
H      -5.03138750      3.89396795      2.41645832
H      -6.01703282      3.03365377      1.33386169
H      -0.91846033      2.15835899      0.84186106
