19
CN1CSC(=S)N(C)C1
C      -2.30346551     -0.83437112     -0.00567833
N      -1.12093974     -0.07340103      0.39697267
C      -1.31746830      1.33547903      0.10874301
S      -0.02049553      2.33905595      0.80712785
C       1.40673276      1.40616510      0.39131031
S       2.87029235      2.23790833      0.28763740
N       1.25240702      0.02341382      0.24776513
C       2.42433302     -0.84352458      0.12986913
C       0.04480014     -0.53726204     -0.32743528
H      -2.51349025     -0.74263943     -1.07782580
H      -3.18650473     -0.49677792      0.54865307
H      -2.17714282     -1.89696299      0.23078641
H      -1.39384843      1.53426847     -0.96784856
H      -2.25197575      1.68667669      0.56107149
H       3.23951249     -0.50292010      0.77338151
H       2.75722507     -0.85499128     -0.91259682
H       2.16382260     -1.85885452      0.44474361
H       0.01797405     -0.29252590     -1.39782954
H       0.10823155     -1.62873650     -0.23884726
