48
COc1cc(NS(=O)(=O)c2ccc(C)cc2)c2c(c1N)C(=O)c1ccccc1C2=O
C      -0.91427785     -4.80786508     -2.29852600
O      -1.64381716     -4.10939315     -1.29527822
C      -1.46390569     -2.74754790     -1.22617542
C      -0.82511560     -1.98507594     -2.20287593
C      -0.66446424     -0.60892918     -2.02913668
N       0.12136643      0.10751977     -2.99881193
S       1.80648021     -0.15364972     -2.98057654
O       2.39998685      0.85496789     -3.83133191
O       2.06300622     -1.56269529     -3.19626447
C       2.24414313      0.22844174     -1.29736852
C       2.48888428      1.55504021     -0.93552295
C       2.77530978      1.86194824      0.39524914
C       2.82053689      0.85002550      1.36397866
C       3.15300035      1.18245439      2.78946247
C       2.61748339     -0.48184477      0.97732752
C       2.33313192     -0.79689776     -0.35193222
C      -1.17842826      0.02457933     -0.88162669
C      -1.82938092     -0.73209881      0.09872914
C      -1.99482978     -2.12484179     -0.07355073
N      -2.45844677     -2.94848673      0.97826405
C      -2.36017242     -0.05125426      1.30953016
O      -3.13389488     -0.61775197      2.07525576
C      -1.96862589      1.34288569      1.58515238
C      -2.27117107      1.92359738      2.82319575
C      -1.91381545      3.24862178      3.07878557
C      -1.26215176      3.99719704      2.09907364
C      -0.96717010      3.42182481      0.86234162
C      -1.32000161      2.09033144      0.60915207
C      -1.01584884      1.48517193     -0.69687014
O      -0.62062383      2.18865803     -1.62227359
H      -1.29114193     -4.56282120     -3.29664621
H      -1.06981435     -5.87910424     -2.13845652
H       0.16039698     -4.61176516     -2.22000366
H      -0.42448150     -2.44223138     -3.10310732
H      -0.05400321      1.12552406     -3.00184646
H       2.44027370      2.35202393     -1.67501461
H       2.96145391      2.89754305      0.67354362
H       2.77922127      2.17708921      3.05460266
H       4.23713726      1.15966427      2.93609089
H       2.68704663      0.46767201      3.47588082
H       2.68216335     -1.28301221      1.71169519
H       2.17394579     -1.83518968     -0.63584976
H      -3.08541134     -2.45619437      1.62317516
H      -2.82647009     -3.83552668      0.64099533
H      -2.78602470      1.34770189      3.59050497
H      -2.14910782      3.69806058      4.04125975
H      -0.98851890      5.03143176      2.29675411
H      -0.46385237      4.01420133      0.10042081
