29
C=CC1(CC(C)C)C(=O)NC(=O)NC1=O
C       2.09474291      2.54819557      0.79331365
C       1.19624083      1.63518241      1.19177068
C       0.57472669      0.48324754      0.38239671
C      -0.96282417      0.70916449      0.36252454
C      -1.81142455     -0.20421358     -0.55806369
C      -1.71218698     -1.69088111     -0.22326866
C      -3.27988242      0.23330879     -0.48786881
C       1.13145555      0.45491383     -1.04072808
O       0.73506534      1.19080095     -1.94479807
N       2.16803838     -0.40395277     -1.28219750
C       2.58741594     -1.40641509     -0.46850689
O       3.38411171     -2.25449652     -0.85626178
N       2.03856629     -1.46380784      0.77136666
C       0.94720655     -0.75601777      1.19219323
O       0.35572791     -1.10599709      2.21397210
H       2.49836489      2.58870625     -0.21376482
H       2.44093191      3.31373680      1.48376002
H       0.84727352      1.70663734      2.22529376
H      -1.15417594      1.74698478      0.05080799
H      -1.36043012      0.63228890      1.38474267
H      -1.48904254     -0.07141679     -1.59697499
H      -1.95209570     -1.88042305      0.82794194
H      -0.71238964     -2.08071974     -0.43147062
H      -2.41075653     -2.27318859     -0.83447812
H      -3.38754097      1.28499508     -0.77387190
H      -3.68253400      0.11273386      0.52366574
H      -3.89675017     -0.36024935     -1.17110784
H       2.53071956     -0.41382506     -2.22533022
H       2.28144576     -2.27529222      1.32263732
