16
O=C(O)/C=C\C=C/C(=O)O
O       2.49991633      0.71880482     -1.30702829
C       2.69778833     -0.00536418     -0.35240164
O       3.93522456     -0.41190858     -0.01990745
C       1.72303475     -0.56966966      0.59538338
C       0.39209484     -0.39182201      0.59254905
C      -0.39209488      0.39182286     -0.33751046
C      -1.72303494      0.56966944     -0.34034557
C      -2.69778875      0.00536213      0.60743857
O      -2.49991692     -0.71881104      1.56206239
O      -3.93522420      0.41191049      0.27494771
H       4.50678889      0.00728882     -0.69642003
H       2.15860258     -1.19406009      1.37061613
H      -0.15521287     -0.89935988      1.38549780
H       0.15521307      0.89936152     -1.13045890
H      -2.15860257      1.19405956     -1.11557829
H      -4.50678820     -0.00728421      0.95146259
