37
CCOP(=S)(OCC)OP(=S)(OCC)OCC
C      -2.96403774     -2.53033027     -1.37509136
C      -2.21043820     -2.15681336     -0.11425563
O      -2.37207468     -0.76726267      0.11592462
P      -1.27200863     -0.00070542      1.02841730
S      -1.04697199     -0.68423150      2.82367158
O      -1.77714966      1.52518990      0.87409002
C      -3.05756142      1.87275097      1.37266715
C      -3.30691431      3.34110692      1.08018647
O      -0.01921130     -0.01179067      0.04139524
P       1.45314191      0.53109068      0.32645862
S       1.66252577      2.28979514      1.10442336
O       2.13624600      0.32002470     -1.12884484
C       1.65894392      1.09732852     -2.21525354
C       2.32756255      0.60879927     -3.48378953
O       2.09261035     -0.71514388      1.13252713
C       3.49281088     -0.73702807      1.35110867
C       3.85353511     -2.03732600      2.04048439
H      -2.55897879     -1.99134413     -2.23829226
H      -4.02005652     -2.25091742     -1.29833199
H      -2.89516128     -3.60492676     -1.56554365
H      -2.61743303     -2.70538389      0.74003322
H      -1.15144793     -2.40588617     -0.22279911
H      -3.09708162      1.69532004      2.45227975
H      -3.82163695      1.26018887      0.88156643
H      -2.56342922      3.96781792      1.58616545
H      -4.30376323      3.63897020      1.41426131
H      -3.22008454      3.54363555      0.00718666
H       1.90307477      2.15099473     -2.04842755
H       0.57152858      0.99580223     -2.29564935
H       1.98669773      1.18267211     -4.35058235
H       3.41607495      0.70127470     -3.40487136
H       2.10942071     -0.45221579     -3.65265595
H       4.01840114     -0.66603722      0.39317542
H       3.78445320      0.11075544      1.97868034
H       3.32843498     -2.12506325      2.99701384
H       3.54998974     -2.89554122      1.43013896
H       4.92998875     -2.09557017      2.22253255
