29
CC(C)N(CCO)C(C)C
C      -1.83774885     -0.34105039      1.63750911
C      -0.93588450     -0.82967875      0.49506119
C      -1.80238929     -1.37555123     -0.64925569
N       0.00363609      0.25894930      0.14569190
C      -0.53832611      1.23531946     -0.82582756
C       0.13346373      2.61414955     -0.70350235
O       0.16552805      3.01509783      0.66555486
C       1.38688175     -0.17112695     -0.15738753
C       1.52477174     -1.23630473     -1.24864669
C       2.09968345     -0.62555973      1.12478133
H      -1.23875619     -0.00020504      2.48965106
H      -2.48689004      0.48444045      1.32712226
H      -2.48084778     -1.15381360      1.99304239
H      -0.38151952     -1.68062221      0.90620010
H      -2.52911368     -0.63979502     -1.00857211
H      -1.19801971     -1.70028200     -1.50025530
H      -2.37139427     -2.24686459     -0.30512397
H      -1.59814010      1.40798978     -0.60389599
H      -0.47680418      0.87073635     -1.85692323
H      -0.43081247      3.36403850     -1.26638763
H       1.15771688      2.60902172     -1.08606203
H       0.26723943      2.17823887      1.16449823
H       1.95849869      0.69978652     -0.49659602
H       1.04784650     -0.91805744     -2.18078887
H       2.58300215     -1.41404260     -1.47165876
H       1.09333422     -2.19542787     -0.94543486
H       1.70232710     -1.56674975      1.51663703
H       3.16766682     -0.77760154      0.93144563
H       2.01505009      0.13496508      1.90912347
