18
Ic1cccc2ccccc12
I      -1.37186807      3.48313843      0.18763561
C      -1.21965594      1.38089630      0.05319636
C      -2.43597284      0.69008726     -0.03070425
C      -2.44407482     -0.69628030     -0.12276612
C      -1.23999277     -1.39561785     -0.13131658
C      -0.00987648     -0.72371700     -0.04823478
C       1.18653522     -1.46041067     -0.05949744
C       2.42400739     -0.82564878      0.02135479
C       2.48160184      0.55714157      0.11473044
C       1.30103554      1.30474792      0.12721590
C       0.02432527      0.69177236      0.04657983
H      -3.38455735      1.22141244     -0.02527807
H      -3.38661682     -1.23362184     -0.18791192
H      -1.26920403     -2.48131164     -0.20414059
H       1.16326983     -2.54602282     -0.13212555
H       3.33908917     -1.41160958      0.01125658
H       3.44285095      1.06060335      0.17821286
H       1.39910389      2.38444084      0.20179291
