20
Cc1cccc2sc3nncn3c12
C      -0.16935181      2.22626487     -0.14870431
C      -0.69104356      0.82527387     -0.07942936
C      -2.07828001      0.59849639     -0.11863079
C      -2.61886456     -0.69960745     -0.05666798
C      -1.78887313     -1.81633955      0.04675478
C      -0.42161657     -1.61057390      0.08653035
S       0.83948697     -2.88761471      0.21687405
C       2.02996646     -1.63869231      0.18319020
N       3.33301760     -1.59998159      0.23113523
N       3.67741495     -0.25350913      0.15847866
C       2.56334443      0.45413976      0.07018554
N       1.50182297     -0.38877669      0.08294160
C       0.11267654     -0.30587479      0.02389787
H      -0.98356121      2.95496410     -0.22672530
H       0.39619182      2.46803810      0.75639439
H       0.46532603      2.35391200     -1.03096719
H      -2.76727825      1.43927681     -0.19897726
H      -3.69869408     -0.83235924     -0.08998130
H      -2.20985664     -2.81582217      0.09427689
H       2.50817207      1.52878562     -0.00057606
