34
Cn1c(=O)c2c(nc(-c3ccccc3)n2C)n(C)c1=O
C       4.64803619      0.67309823     -1.30591400
N       3.39851888      0.47783115     -0.59682757
C       2.21995902      0.41268465     -1.34640803
O       2.17428192      0.50072901     -2.56990340
C       1.06262324      0.21907470     -0.54202794
C       1.11574452      0.07990810      0.80893668
N      -0.11604011     -0.10895672      1.34830211
C      -0.95520237     -0.12113178      0.32109546
C      -2.39825649     -0.34276438      0.43764717
C      -3.12781660      0.36638853      1.40075723
C      -4.50389905      0.17110602      1.53654883
C      -5.16125829     -0.74534049      0.71805998
C      -4.44302921     -1.47320494     -0.22913619
C      -3.06627693     -1.27749964     -0.36537482
N      -0.26824173      0.13620525     -0.85593095
C      -0.83213847      0.34656452     -2.16854852
N       2.30167030      0.12672943      1.50074719
C       2.30974046     -0.04331543      2.94233771
C       3.49247762      0.32046885      0.80124284
O       4.58704725      0.35147738      1.37159856
H       5.24991301     -0.23667352     -1.21153988
H       4.49850689      0.89245949     -2.36601427
H       5.19905002      1.50170678     -0.84902811
H      -2.61981328      1.07420407      2.05327898
H      -5.05884768      0.72912807      2.28627870
H      -6.23151234     -0.90143290      0.82771468
H      -4.95320435     -2.20174105     -0.85422453
H      -2.51970869     -1.87608824     -1.08973618
H      -0.28673560      1.14907546     -2.67084449
H      -1.87708120      0.65170004     -2.08392155
H      -0.74834453     -0.58656466     -2.73046549
H       3.31669525      0.04721696      3.35797095
H       1.67445255      0.72319550      3.39746803
H       1.91868981     -1.03623842      3.18599738
