30
CCCn1cnc2c1c(=O)n(C)c(=O)n2C
C       3.82852095     -0.16018137     -0.27172263
C       2.88700518     -1.29058074      0.11888722
C       1.99819323     -0.94507782      1.31386159
N       1.01779454      0.08465403      1.03621731
C       1.11713445      1.40107860      1.41044246
N       0.06333551      2.09632932      1.03415354
C      -0.73619956      1.18742884      0.41084281
C      -0.18376578     -0.05822914      0.40011085
C      -0.82550021     -1.18529997     -0.18406392
O      -0.33059920     -2.30857371     -0.18398401
N      -2.06616309     -0.87231447     -0.74786568
C      -2.81972331     -1.93937681     -1.37698786
C      -2.66975322      0.40213249     -0.75234762
O      -3.77776393      0.57737684     -1.26828029
N      -1.96329118      1.44356212     -0.15142219
C      -2.51476631      2.78572092     -0.11309160
H       4.44899987      0.14565941      0.57657478
H       3.27665087      0.71386571     -0.63029493
H       4.49387346     -0.48699205     -1.07727707
H       3.48918663     -2.16979653      0.37660511
H       2.27763964     -1.56399073     -0.74980751
H       2.60697656     -0.60860364      2.16150820
H       1.45123915     -1.83250967      1.65083319
H       1.97183274      1.79532864      1.94592795
H      -3.02888022     -1.66449884     -2.41609217
H      -2.28863778     -2.89428408     -1.36425976
H      -3.77347625     -2.05645590     -0.85196394
H      -2.63188777      3.09393972      0.93069847
H      -3.48971220      2.84048861     -0.60439814
H      -1.82826277      3.46920025     -0.62280416
