29
O=C(OCC(=O)N1CCC1)c1ccccc1
O      -0.10211611     -1.19958012      0.69210497
C      -0.85984599     -0.24907451      0.56909260
O      -0.49524440      1.05709360      0.60616077
C       0.91590929      1.25502645      0.69589097
C       1.63699359      0.94262008     -0.61805340
O       1.12055934      1.16800946     -1.71371054
N       2.90693607      0.43188435     -0.49852927
C       3.47387118     -0.38783936      0.56432232
C       4.57197433     -0.75766778     -0.43895240
C       3.63916513     -0.26585457     -1.55052058
C      -2.32997576     -0.38231598      0.38646721
C      -2.89535273     -1.66172244      0.47796718
C      -4.27086400     -1.83710845      0.31396830
C      -5.08760267     -0.73715622      0.05531799
C      -4.53223450      0.53841789     -0.04197128
C      -3.15650334      0.71825340      0.12197992
H       1.32031668      0.69377166      1.54398714
H       1.08324440      2.31664738      0.90805060
H       3.81140747      0.18022799      1.43390084
H       2.82336518     -1.21354623      0.86694782
H       4.83450272     -1.81819257     -0.47969197
H       5.48869979     -0.16610670     -0.33335346
H       3.04614195     -1.04201900     -2.04349590
H       4.09715963      0.39832889     -2.28667484
H      -2.26574623     -2.52709521      0.67585859
H      -4.70364754     -2.83192227      0.38526241
H      -6.15838113     -0.87453815     -0.07503154
H      -5.16996420      1.39421163     -0.25003750
H      -2.74276813      1.71973864      0.03274306
