10
CSSC
C      -1.57699404      0.94106031      0.09586438
S      -0.54525610      0.73357732     -1.37685399
S       0.17229264     -1.17843679     -1.12831474
C       1.60798121     -0.90409939     -0.06062159
H      -0.97411240      0.86334116      1.00441305
H      -2.03433931      1.93401924      0.07230548
H      -2.37647468      0.19555046      0.11364603
H       2.33232447     -0.24821021     -0.55093481
H       1.30166807     -0.47264354      0.89592744
H       2.09291013     -1.86415855      0.13640129
