18
CC(=O)NC(=O)NC(C)=O
C       3.07314503      0.43794341      0.95953604
C       2.18578098      0.85561050     -0.18174648
O       2.51406110      1.75434875     -0.95646422
N       0.97019982      0.23462613     -0.32396711
C       0.18648694     -0.25320563      0.69156542
O       0.57172695     -0.51534749      1.82771524
N      -1.12492755     -0.52185561      0.36666132
C      -1.79236485     -0.22298393     -0.80344008
C      -3.24194090     -0.62665924     -0.80876334
O      -1.26528719      0.34043342     -1.75889314
H       2.77177049      0.95520275      1.87364268
H       3.03824248     -0.64533756      1.10243673
H       4.10747166      0.70686165      0.72430441
H       0.45308070      0.58820706     -1.12611257
H      -1.64300990     -0.91086007      1.14191059
H      -3.47169625     -1.31872165      0.00606372
H      -3.47039185     -1.12528342     -1.75479418
H      -3.86234766      0.26702095     -0.70290463
