18
CC(C)OP(C)(=O)F
C      -1.54134349      1.30685288      0.58925987
C      -1.07233625     -0.02991674      0.03477052
C      -1.78334039     -1.19017152      0.71511667
O       0.32131038     -0.16225063      0.28639788
P       1.32396930      0.03906312     -0.96616891
C       2.93414618     -0.10252143     -0.22697162
O       1.09071561      1.32293979     -1.70660923
F       0.96758093     -1.18801276     -1.88006568
H      -1.01001265      2.13198312      0.10355885
H      -2.61550298      1.44654815      0.43442924
H      -1.32765388      1.38467632      1.66106156
H      -1.27014948     -0.07296800     -1.04251310
H      -1.58158873     -1.19935683      1.79202319
H      -1.41840807     -2.14414711      0.31921080
H      -2.86543286     -1.13971876      0.56082240
H       3.71149794     -0.04773744     -0.99380690
H       3.10160138      0.70302192      0.49317346
H       3.03494704     -1.05828408      0.29453812
