30
CC[N+](CC)(CC)CC.[Br-]
C       2.02610340      1.01081322      1.24780085
C       1.53121434      0.27623290      0.00992268
N       0.00000125     -0.00000135      0.00000144
C      -0.82070699      1.30401182      0.21679368
C      -0.48113694      2.42539892     -0.75483017
C      -0.38211830     -0.59549479     -1.38577891
C       0.22481426     -1.96259875     -1.66778320
C      -0.32838296     -0.98475800      1.15906793
C      -1.76978769     -1.47360710      1.17480758
Br      0.00000000      0.00000000      0.00000000
H       1.85899522      0.43717066      2.16303127
H       1.56842830      1.99596188      1.36464127
H       3.10705979      1.16868423      1.16434286
H       2.03534325     -0.69327335     -0.05293223
H       1.76937976      0.84270098     -0.89626965
H      -0.65912284      1.62661435      1.25053231
H      -1.87777361      1.04371599      0.10323211
H      -1.09736488      3.30113379     -0.52308086
H      -0.69460680      2.15261769     -1.79148747
H       0.56203594      2.74246660     -0.68486620
H      -1.47499100     -0.64066824     -1.43460486
H      -0.03671355      0.11037410     -2.14767367
H       1.31720257     -1.93320293     -1.68918688
H      -0.10349777     -2.30521516     -2.65529414
H      -0.09008096     -2.72060103     -0.94673548
H       0.36474365     -1.82866092      1.08033510
H      -0.12084162     -0.46083027      2.09739916
H      -2.04040793     -2.01779833      0.26692079
H      -1.90618554     -2.16461242      2.01401171
H      -2.48160234     -0.65657449      1.31768293
