22
O=c1[nH]c(=O)c2cc([N+](=O)[O-])cc([N+](=O)[O-])c2[nH]1
O      -4.16785525      0.18520626     -0.31543063
C      -2.99027855     -0.15302596     -0.28856250
N      -2.60614052     -1.44278045     -0.50215102
C      -1.32259688     -1.91803351     -0.46266890
O      -1.05213301     -3.09869266     -0.63989796
C      -0.26291470     -0.92425064     -0.18927082
C       1.07618738     -1.33433905     -0.14202308
C       2.07136979     -0.38776947      0.11774221
N       3.47940987     -0.80702731      0.17322353
O       3.73944128     -1.98308910     -0.10852819
O       4.31475269      0.04568445      0.49968023
C       1.73807279      0.95785319      0.32580191
C       0.38766719      1.35530354      0.27376676
N       0.08211502      2.77872550      0.48215396
O      -1.09794126      3.09601655      0.68460754
O       1.02604525      3.57768221      0.43949711
C      -0.62752969      0.41307375      0.01856422
N      -1.99229221      0.74270910     -0.04093865
H      -3.34262874     -2.11023370     -0.68001899
H       1.32413020     -2.38351659     -0.30646622
H       2.52196523      1.68965443      0.52570151
H      -2.29884590      1.70084945      0.13521798
