23
CCOC(=O)c1ccc(N=C=S)cc1
C      -4.02732829      1.19052848      0.54983261
C      -3.25990916     -0.11399991      0.63983313
O      -1.90178814      0.14001593      0.25989118
C      -1.10101069     -0.95360503      0.29692881
O      -1.44328490     -2.08072833      0.61710114
C       0.28705319     -0.60144866     -0.11025838
C       1.24999382     -1.61922925     -0.12804627
C       2.56756411     -1.33896176     -0.50435878
C       2.94735223     -0.03701154     -0.85343320
N       4.26280392      0.23813498     -1.26031254
C       4.95012654      0.54211703     -0.35692751
S       6.01860945      1.01226304      1.01391812
C       1.97685057      0.97337110     -0.85586299
C       0.65706733      0.69818989     -0.48034107
H      -3.98639564      1.59231064     -0.46801459
H      -5.07425833      1.04769686      0.83157777
H      -3.58350273      1.94494285      1.20785633
H      -3.29181274     -0.49210513      1.66781821
H      -3.70226544     -0.85135459     -0.03940646
H       0.97762393     -2.63755459      0.14514175
H       3.29912657     -2.14357696     -0.52845082
H       2.24750676      1.98326340     -1.15635144
H      -0.07012234      1.50674154     -0.48813500
