26
CCCC1CCCCN1
C       3.77931035      0.33039313      0.33003268
C       2.35724284      0.73944489     -0.02218775
C       1.39302189     -0.44650468      0.08293442
C      -0.04676065     -0.09314773     -0.33595526
C      -0.92441383     -1.35644773     -0.32585977
C      -2.37221334     -1.03148927     -0.68427601
C      -2.90472608      0.09375652      0.19601695
C      -1.96624009      1.29754524      0.17557771
N      -0.60266100      0.93100166      0.56152461
H       4.45187501      1.19007332      0.24911903
H       3.83538275     -0.04982210      1.35502723
H       4.14259637     -0.44956996     -0.34672391
H       2.34188388      1.14111177     -1.04198852
H       2.04606060      1.54623820      0.65061596
H       1.40164213     -0.83368925      1.11041332
H       1.75985460     -1.25767581     -0.55935358
H      -0.01429058      0.30966212     -1.35713570
H      -0.53266640     -2.09198352     -1.03851860
H      -0.89526918     -1.82746437      0.66555524
H      -2.42825291     -0.72955113     -1.73736813
H      -2.99674577     -1.92449947     -0.57181732
H      -3.01633838     -0.26934196      1.22552136
H      -3.90117975      0.39319549     -0.14758314
H      -1.95916218      1.75872905     -0.81946151
H      -2.33682024      2.05959602      0.86995456
H      -0.61113006      0.57043956      1.51593614
