31
O=C1CCC(C(=O)[O-])N1.O=C1CCC(C(=O)[O-])N1.[Cu+2]
O      -1.69809615      2.18671805      0.20758604
C      -1.06645228      1.14248597      0.23307197
C      -1.35028806     -0.08365412     -0.59933529
C      -0.41362076     -1.13271734     -0.00637607
C       0.73564728     -0.30598102      0.54791594
C       1.90085026     -0.01006808     -0.45019368
O       1.98875630     -0.77443641     -1.45040333
O       2.62569087      0.97573915     -0.11912455
N       0.04365498      0.89175220      1.01574423
O      -1.29853904      1.82119106     -1.64481250
C      -0.86339195      0.90500603     -0.96562505
C      -1.29746017      0.56063745      0.43789820
C      -0.60440331     -0.77365279      0.70023742
C       0.62929501     -0.71020285     -0.18605307
C       1.89692736     -0.06612282      0.46183394
O       2.75783528      0.33508556     -0.37762049
O       1.92090484     -0.02388924      1.72280535
N       0.12641738      0.02004259     -1.34628464
Cu      0.00000000      0.00000000      0.00000000
H      -1.10049139      0.13206975     -1.64255602
H      -2.39787295     -0.38157378     -0.51298213
H      -0.12568004     -1.89165643     -0.73873462
H      -0.92760174     -1.64780749      0.81579835
H       1.18140632     -0.79654450      1.42058299
H       0.60409736      1.69567406      1.27900617
H      -2.38451812      0.47112955      0.50064928
H      -0.93945299      1.33840272      1.11918643
H      -0.40227743     -0.93313378      1.76276156
H      -1.25845214     -1.58899021      0.36421685
H       0.91826559     -1.71254660     -0.52176547
H       0.79884969      0.35704334     -2.02742781
