21
C#CC1(O)CCCCC1
C       2.74549787     -1.03091158     -0.57513296
C       1.89598351     -0.28794593     -0.16315175
C       0.85770717      0.63270484      0.34581869
O       1.51661749      1.75977322      0.92682365
C      -0.04034729      1.14079290     -0.79297514
C      -0.99327053      0.07087849     -1.32517490
C      -1.81750887     -0.55519178     -0.20427957
C      -0.93293840     -1.09989558      0.91313700
C       0.01985392     -0.03117559      1.44809277
H       3.49998134     -1.69217855     -0.93467986
H       2.15457814      2.08328956      0.26817028
H       0.56888718      1.53359746     -1.61761256
H      -0.62915306      1.99583566     -0.43326225
H      -1.66456991      0.51640435     -2.06822628
H      -0.42482481     -0.71090474     -1.84304893
H      -2.50148660      0.19713651      0.20766150
H      -2.43845113     -1.36203502     -0.60956956
H      -0.36047410     -1.95853392      0.54228762
H      -1.56221896     -1.47052524      1.73039384
H      -0.56551090      0.73868358      1.96962040
H       0.67164797     -0.46979863      2.21510799
