20
O=C1c2ccccc2C(=O)N1SC(Cl)(Cl)Cl
O       1.17563819     -2.12777993      0.83416731
C       0.67959431     -1.20825037      0.21058586
C      -0.67051432     -0.70317137      0.45563429
C      -1.60964003     -1.08665747      1.39314932
C      -2.83515193     -0.41318304      1.38171929
C      -3.08969879      0.61085080      0.44562097
C      -2.12319880      0.97937272     -0.49546757
C      -0.92021362      0.30135989     -0.46263670
C       0.26831920      0.44629248     -1.30188074
O       0.34177356      1.22682357     -2.23237679
N       1.18696613     -0.45294737     -0.81826011
S       2.70244685     -0.71692191     -1.51912673
C       3.77012189      0.41737782     -0.56859762
Cl      3.25927903      2.11937580     -0.75422774
Cl      5.45014105      0.27209834     -1.18436184
Cl      3.78295504      0.01264865      1.17158741
H      -1.40270549     -1.87806436      2.10688134
H      -3.60516989     -0.68225209      2.10331082
H      -4.05289521      1.11893358      0.45679667
H      -2.30804717      1.76409425     -1.22251746
