19
C=COCCCC
C       3.50741792      0.25888374     -0.61268926
C       2.71850176      1.30017605     -0.32518594
O       1.37049277      1.32762757     -0.11083856
C       0.66800970      0.08642536     -0.19759332
C      -0.80820057      0.36124893      0.07582882
C      -1.64224751     -0.91476462      0.00406742
C      -3.11159101     -0.63594920      0.27705225
H       3.13797054     -0.75372042     -0.71519504
H       4.57284316      0.41111206     -0.75461083
H       3.11400200      2.30616527     -0.22778482
H       1.05716878     -0.61569515      0.54958626
H       0.78432889     -0.33886644     -1.20173064
H      -0.91336236      0.82883125      1.06292920
H      -1.17967461      1.09903771     -0.64648296
H      -1.27254955     -1.64299892      0.73526325
H      -1.54096997     -1.37065434     -0.98767672
H      -3.52091309      0.06513362     -0.45731242
H      -3.25099238     -0.20873339      1.27525437
H      -3.69023446     -1.56325909      0.22062082
