22
Clc1ccc(Cl)c(-c2ccc(Cl)c(Cl)c2Cl)c1
Cl     -3.76474347      2.59308971      0.34493643
C      -2.88310601      1.11696476      0.29907459
C      -3.55599008     -0.09397362      0.43542453
C      -2.83924282     -1.29024599      0.39474374
C      -1.45139386     -1.27167116      0.21875211
Cl     -0.62843331     -2.79262908      0.16811720
C      -0.75764711     -0.05264892      0.08274784
C       0.70362778      0.01249518     -0.10161117
C       1.21568982      0.02342548     -1.41023341
C       2.58956925      0.07607937     -1.64043348
C       3.48005329      0.12073101     -0.56614005
Cl      5.16683862      0.18568763     -0.94746581
C       3.00091388      0.11478526      0.75213327
Cl      4.11825240      0.17684331      2.08286668
C       1.61169216      0.06162590      0.98218005
Cl      0.98604562      0.06292536      2.60886335
C      -1.49888144      1.14322490      0.12325911
H      -4.63405859     -0.11433025      0.57420757
H      -3.36744195     -2.23490343      0.50211965
H       0.53919533     -0.01740175     -2.26372077
H       2.96018196      0.07895064     -2.66369343
H      -0.99112146      2.10097568      0.02387200
