8
O=C(O)CF
O       0.25913271      1.95344711      0.15954612
C       0.38728062      0.74586505      0.03019033
O       1.58928684      0.14335259     -0.15563270
C      -0.74716374     -0.24746533      0.05591428
F      -0.26910624     -1.51964976     -0.11691982
H       1.47067576     -0.82983099     -0.23623556
H      -1.24990143     -0.20840566      1.02443936
H      -1.44020451     -0.03731301     -0.76130201
