34
Nc1ccc(S(=O)(=O)NC(CO)(CO)CO)cc1
N       4.59161845      1.08643053     -1.52239511
C       3.43091218      0.44398778     -1.07585543
C       2.60513842     -0.22628127     -1.98368621
C       1.50662567     -0.96831640     -1.54003889
C       1.24910466     -1.06456489     -0.17131646
S      -0.10851438     -2.03433234      0.42029218
O      -0.77763117     -2.63606391     -0.71528788
O       0.39622920     -2.85386602      1.50046370
N      -1.16586975     -0.95371268      1.12423489
C      -1.96390225      0.10637566      0.42334367
C      -2.72922960     -0.40957817     -0.81401434
O      -1.89071964     -0.63901614     -1.93953519
C      -3.04296889      0.53933361      1.46618374
O      -2.42431746      1.04607795      2.65794215
C      -1.06547564      1.31927380      0.08664764
O      -0.29785303      1.74571959      1.21867744
C       2.11181916     -0.46801163      0.75064270
C       3.20586773      0.27141215      0.29323724
H       4.52406452      1.43990437     -2.47162543
H       4.94303124      1.78696360     -0.87675045
H       2.81167975     -0.17611988     -3.04978412
H       0.87448299     -1.46865449     -2.26875268
H      -0.86104196     -0.66925737      2.05928523
H      -3.46691117      0.33599238     -1.13189941
H      -3.27890092     -1.33172324     -0.59089422
H      -1.56381987     -1.56188169     -1.84030281
H      -3.68802098      1.32774070      1.06351143
H      -3.66797494     -0.31477378      1.75220678
H      -3.13679595      1.15435435      3.31637954
H      -1.67372310      2.16953989     -0.24203163
H      -0.36354435      1.10056140     -0.72018723
H      -0.91256659      1.76428305      1.98306336
H       1.94689056     -0.57735062      1.81934495
H       3.88231713      0.71555373      1.01890087
