24
N#CCCN(CCC#N)CC(=O)O
N       3.88533024     -1.80993991     -1.19533668
C       2.98058968     -1.45687306     -0.56035686
C       1.81674959     -1.01933073      0.21998984
C       0.90275428     -0.13721167     -0.64098003
N      -0.29849045      0.28475972      0.11836377
C      -1.53322695     -0.37262897     -0.36908865
C      -1.57576683     -1.88611074     -0.11728228
C      -2.87254711     -2.43488544     -0.53420413
N      -3.89819096     -2.85979581     -0.87084654
C      -0.47936854      1.76371145      0.05910705
C       0.61199607      2.52240072      0.81175350
O       1.60875125      2.07434767      1.35467527
O       0.38163803      3.85364070      0.81651258
H       1.27213305     -1.89970956      0.57844325
H       2.15500342     -0.47206409      1.10627124
H       0.62346363     -0.66525041     -1.56301059
H       1.48323113      0.72843854     -0.98848348
H      -2.39361594      0.06680270      0.15475060
H      -1.68310657     -0.16081192     -1.43692121
H      -1.41604456     -2.09205752      0.94748467
H      -0.77999726     -2.39437238     -0.67200259
H      -1.42187199      2.03201588      0.55181138
H      -0.50593722      2.11197457     -0.98002256
H       1.13652401      4.22295029      1.32253990
