45
Cc1cc(C(C)(C)c2cc(C)c(O)c(C)c2)cc(C)c1O
C      -4.37990572      1.61719822     -1.61456688
C      -3.37645668      0.86335114     -0.78739167
C      -2.22045010      0.33983256     -1.38882518
C      -1.26329156     -0.36744857     -0.64429175
C       0.02093441     -0.96285280     -1.27382071
C       0.24138035     -0.55029522     -2.75311830
C      -0.17501838     -2.50187917     -1.28480448
C       1.28213971     -0.49949661     -0.50264535
C       2.24335956     -1.39356621     -0.00522650
C       3.37811512     -0.93964421      0.68645975
C       4.38660515     -1.92518490      1.20710533
C       3.55613693      0.43534772      0.88183132
O       4.67723401      0.82669686      1.56334574
C       2.62463805      1.36092751      0.39854425
C       2.78192327      2.84162275      0.59166863
C       1.49989354      0.87827667     -0.29060478
C      -1.50718578     -0.54294312      0.73424095
C      -2.65358620     -0.02954770      1.36282648
C      -2.83826671     -0.25037584      2.83646955
C      -3.58023856      0.67321255      0.58475354
O      -4.72138637      1.20424488      1.12351190
H      -5.35167180      1.11390287     -1.58314641
H      -4.48754567      2.64044848     -1.24037763
H      -4.07237389      1.67893423     -2.66376652
H      -2.08570067      0.49710011     -2.45550190
H       0.29283233      0.53784705     -2.87791025
H      -0.56288871     -0.91934921     -3.40075449
H       1.18058299     -0.96349886     -3.14231431
H      -1.09922286     -2.77832791     -1.80800029
H      -0.24104890     -2.91970288     -0.27320299
H       0.64835565     -3.01141009     -1.79950412
H       2.12847881     -2.46466354     -0.14751352
H       5.36532418     -1.74226829      0.75183327
H       4.47024179     -1.84278245      2.29561695
H       4.10012060     -2.95613061      0.97411373
H       4.69165566      1.79275671      1.63224633
H       2.80340545      3.08405939      1.65901636
H       1.95293227      3.39991015      0.14385761
H       3.70607593      3.18918544      0.11880732
H       0.76665338      1.59228298     -0.66581805
H      -0.77763986     -1.08713962      1.33411134
H      -2.88589586      0.70980760      3.36015665
H      -3.75770847     -0.81468984      3.02257159
H      -2.00902302     -0.82039384      3.26876537
H      -4.75251335      1.00664560      2.07125211
