52
COc1ccc(OC)c(-c2cccc3c(N)c4c(nc23)CN(C2CCC2)C4=O)c1
C      -4.97112558     -3.46757168      1.49608057
O      -4.06323584     -2.39589193      1.71708422
C      -4.01719735     -1.41650148      0.76367290
C      -4.78041942     -1.37153778     -0.40153082
C      -4.62200114     -0.31223832     -1.29772143
C      -3.69168853      0.69672819     -1.03567526
O      -3.59790766      1.72106637     -1.94612054
C      -2.56699421      1.43748174     -2.89379022
C      -2.93131576      0.69614040      0.14618660
C      -1.98547702      1.78407927      0.48334577
C      -2.50358824      3.07212084      0.71950092
C      -1.66679289      4.13519286      1.02537465
C      -0.29580528      3.92324182      1.11237187
C       0.26763436      2.64646142      0.89954607
C       1.66729473      2.41577777      0.99956065
N       2.59114945      3.45501447      1.23446543
C       2.10920884      1.14720422      0.67367271
C       1.21882043      0.15050621      0.35264692
N      -0.11068211      0.31555675      0.29841937
C      -0.59730990      1.55365579      0.56228475
C       1.94835567     -1.13306642      0.08288374
N       3.33882910     -0.75640136      0.25694447
C       4.45307109     -1.70788339      0.28209327
C       5.54488941     -1.44992327     -0.79111337
C       5.69361429     -2.98255212     -0.89267091
C       4.22992052     -3.07675046     -0.41064917
C       3.45659538      0.57275696      0.65367287
O       4.46593000      1.17515441      0.97322810
C      -3.10755214     -0.38532855      1.03029631
H      -4.87723296     -4.16428896      2.33528383
H      -6.00610630     -3.10916127      1.47581996
H      -4.72297471     -4.01415932      0.57999298
H      -5.50554131     -2.14069309     -0.64301752
H      -5.22047913     -0.27273120     -2.20363790
H      -2.57156115      2.23895332     -3.63939741
H      -1.58087578      1.42599977     -2.42052682
H      -2.74912620      0.48997196     -3.41214211
H      -3.57674951      3.24434842      0.64880297
H      -2.08016325      5.12686501      1.18836405
H       0.33650490      4.77907244      1.33529129
H       2.29664828      4.13413535      1.92766602
H       3.53804221      3.10679824      1.42052561
H       1.78350349     -1.47094062     -0.94320515
H       1.68069170     -1.90315764      0.81117719
H       4.86446593     -1.81125907      1.29644115
H       5.17734046     -0.98260949     -1.71407520
H       6.43277517     -0.91243490     -0.44798137
H       5.89030934     -3.38094478     -1.89140053
H       6.41969648     -3.40471198     -0.18728180
H       4.00900473     -3.91320204      0.25757280
H       3.50749203     -3.07907751     -1.23591375
H      -2.52188463     -0.42926539      1.94667300
