14
O=[N+]([O-])c1c(Cl)c(Cl)c(Cl)c(Cl)c1Cl
O       2.82718921     -0.11645913     -1.30051073
N       2.34897606     -0.11804830     -0.16062727
O       2.97497198     -0.17512973      0.90374831
C       0.91462710     -0.04596481     -0.06254389
C       0.30820562      1.21274336      0.01161600
Cl      1.26615379      2.66287334     -0.01401106
C      -1.09195340      1.27959234      0.10726790
Cl     -1.88189441      2.82868367      0.20146094
C      -1.85609903      0.09327867      0.12692348
Cl     -3.59237899      0.18053580      0.24565353
C      -1.21859635     -1.16347515      0.05073173
Cl     -2.16461761     -2.62532530      0.07524702
C       0.18119905     -1.23733852     -0.04508240
Cl      0.98421698     -2.77596625     -0.13987354
