27
O=c1[nH]c(CN2CCCC2)c(Br)c(=O)[nH]1
O      -2.30840365      3.10982194      0.81413245
C      -2.42949478      1.91936391      0.54999466
N      -1.40666470      1.03131171      0.68814075
C      -1.47272293     -0.31071682      0.36866155
C      -0.18371748     -1.08051585      0.60520954
N       1.01203142     -0.26016533      0.34606404
C       2.23241613     -0.91197255      0.83137725
C       3.33884739     -0.12794552      0.14287371
C       2.69749773      0.43998598     -1.11822860
C       1.25693978     -0.04855608     -1.08609623
C      -2.61580791     -0.83225347     -0.11528238
Br     -2.86148565     -2.62531231     -0.57724268
C      -3.78552017      0.08967554     -0.28643802
O      -4.86411166     -0.28079291     -0.74225271
N      -3.59861106      1.39226558      0.08977103
H      -0.50684498      1.39841871      0.99353963
H      -0.13840898     -2.00777561      0.02381327
H      -0.18450857     -1.36836145      1.66532019
H       2.32112470     -0.86019002      1.92108875
H       2.27822346     -1.96535460      0.52604323
H       4.19761830     -0.76552869     -0.09017057
H       3.69127637      0.69102404      0.78087251
H       3.21487863      0.10507758     -2.02292188
H       2.73777695      1.53532767     -1.09359604
H       0.57809730      0.68950807     -1.52445974
H       1.17106833     -0.98319833     -1.65519909
H      -4.37149398      2.02685882     -0.03501463
