38
CC(C)OC(=O)c1cc(C(=O)OC(C)C)cc([N+](=O)[O-])c1
C      -4.49735529      2.24704081     -1.02543931
C      -4.46906768      0.89181293     -0.32962203
C      -5.01427226      1.00166027      1.08966118
O      -3.09328634      0.46694768     -0.28533426
C      -2.88200466     -0.86687928     -0.19348886
O      -3.73858641     -1.73379177     -0.14643295
C      -1.42363380     -1.16336818     -0.15329738
C      -0.45078353     -0.15419416     -0.20923880
C       0.91557081     -0.47482473     -0.16830440
C       1.89675706      0.64369283     -0.23132898
O       1.56918474      1.81527780     -0.31744260
O       3.16226123      0.16541116     -0.17777446
C       4.21579857      1.14700187     -0.22673444
C       5.45739821      0.44523142     -0.76296473
C       4.46704513      1.69487273      1.17340013
C       1.31179568     -1.81513785     -0.07062407
C       0.33736192     -2.82134681     -0.01489417
N       0.75302899     -4.22707425      0.08761191
O      -0.13498583     -5.08812612      0.13537047
O       1.96809668     -4.46475584      0.12001510
C      -1.02632153     -2.50361049     -0.05561186
H      -5.51724229      2.63701991     -1.09660446
H      -3.87771534      2.97662252     -0.49218093
H      -4.08418626      2.16390358     -2.03657139
H      -5.06946791      0.18636730     -0.91694560
H      -4.99697085      0.02836823      1.59073910
H      -6.04450467      1.37060794      1.09073288
H      -4.39822803      1.67628890      1.69447342
H      -0.74766528      0.89190288     -0.28520003
H       3.95099165      1.95962441     -0.91419213
H       5.26184937      0.03578530     -1.76002189
H       6.30626828      1.13255425     -0.82872203
H       5.73781097     -0.40083509     -0.12567040
H       5.29706017      2.40801060      1.17660035
H       4.69594375      0.88527394      1.87524405
H       3.57673398      2.20159190      1.55972907
H       2.36928296     -2.07239088     -0.03827542
H      -1.78396218     -3.28653568     -0.01216351
