33
CCNC(=O)[C@@H](C)OC(=O)Nc1ccccc1
C       3.51055600      2.49318787      0.41889960
C       4.19529817      1.14357672      0.54400321
N       3.46655396      0.10420582     -0.15305524
C       2.36370587     -0.50322434      0.42008923
O       2.00213168     -0.28648399      1.57437930
C       1.64908657     -1.50807353     -0.50184626
C       2.38039343     -2.84322124     -0.44516069
O       0.29666796     -1.73222854     -0.09193664
C      -0.54294418     -0.69464511     -0.36140542
O      -0.21266672      0.29592550     -0.99563731
N      -1.76229705     -0.98975266      0.17539918
C      -2.94213064     -0.22873791      0.13951709
C      -4.06432498     -0.75449565      0.79249621
C      -5.27597203     -0.05859748      0.79936102
C      -5.37601479      1.17021129      0.15280061
C      -4.26504693      1.70092178     -0.49860988
C      -3.05211082      1.00441385     -0.50571775
H       3.40473192      2.78103737     -0.63238245
H       4.09384384      3.26535371      0.92964465
H       2.50885348      2.47284789      0.86040251
H       5.19647309      1.18681516      0.10396423
H       4.29497337      0.86873762      1.59939532
H       3.57234029      0.05396239     -1.15817700
H       1.67024152     -1.14644481     -1.53789210
H       1.88025038     -3.58157501     -1.08091642
H       3.42101361     -2.74708236     -0.77039248
H       2.37759766     -3.24676307      0.57388204
H      -1.77669230     -1.86436229      0.68025680
H      -4.01101483     -1.71091170      1.30595605
H      -6.13951679     -0.47573315      1.31068666
H      -6.31631721      1.71509645      0.15733888
H      -4.33702435      2.66123993     -1.00301023
H      -2.21063917      1.45479947     -1.02276286
