51
O=S(=O)(NCC(c1ccccc1)N1CCCCCC1)c1ccccc1
O       2.67881996      0.63413073     -1.55378099
S       2.81738999      1.08231874     -0.18561927
O       2.97572112      2.48174777      0.14326325
N       1.50384866      0.52656715      0.69786134
C       0.81896541     -0.70559458      0.24174123
C      -0.35577680     -0.33781686     -0.71863468
C      -1.13885821     -1.55702134     -1.20084769
C      -1.43361629     -1.68546958     -2.57024063
C      -2.14601719     -2.78427450     -3.05406847
C      -2.57582893     -3.77574967     -2.17725164
C      -2.29466705     -3.66777382     -0.81826380
C      -1.58159488     -2.56807837     -0.33329579
N      -1.17935321      0.79100818     -0.16995448
C      -2.01685580      0.42162999      0.97704303
C      -2.31099980      1.62530512      1.87404877
C      -3.53864171      2.44559921      1.49479355
C      -3.81291155      2.62475207      0.00792062
C      -2.56753094      2.80363539     -0.85011287
C      -1.91190029      1.47555372     -1.24450024
C       4.15551625      0.19947836      0.57460428
C       4.73018926     -0.89480224     -0.07841246
C       5.79103690     -1.57190990      0.52343773
C       6.27558437     -1.15144929      1.76367015
C       5.70543168     -0.05052652      2.40597194
C       4.64405809      0.63144798      1.81139410
H       0.85730069      1.28737130      0.92997281
H       1.52222867     -1.39469397     -0.23945552
H       0.46272879     -1.21895558      1.14095770
H       0.15645707      0.06620237     -1.60280264
H      -1.10554138     -0.92331423     -3.27501192
H      -2.36453145     -2.86454911     -4.11594827
H      -3.13108212     -4.63100851     -2.55294518
H      -2.63292907     -4.44055550     -0.13250649
H      -1.38607959     -2.51569846      0.73424204
H      -2.94073316     -0.08439606      0.67223898
H      -1.47364569     -0.28275807      1.61561599
H      -2.45282491      1.27156228      2.90379267
H      -1.43057589      2.28071167      1.91498403
H      -3.44305693      3.43353858      1.96315672
H      -4.42728054      1.98964336      1.94980599
H      -4.45633932      3.50586421     -0.11057181
H      -4.40096366      1.77590460     -0.36288260
H      -1.84429401      3.47034454     -0.36546981
H      -2.87076935      3.30476939     -1.77878701
H      -1.20519024      1.71769122     -2.04900971
H      -2.67134056      0.81644692     -1.68297009
H       4.36253403     -1.22144276     -1.04825621
H       6.24438789     -2.42529048      0.02469892
H       7.10445125     -1.67986860      2.22887456
H       6.09127992      0.27741325      3.36801049
H       4.20380053      1.49235992      2.30949935
