66
CC[C@H](C)C(=O)O[C@H]1C[C@H](O)C=C2C=C[C@H](C)[C@H](CC[C@@H](O)C[C@@H](O)CC(=O)[O-])[C@H]21.[Na+]
C      -0.86089440      2.72644279      1.16002854
C      -2.37258461      2.76673927      1.34038399
C      -3.08209560      1.60555535      0.63335150
C      -4.59933151      1.75534276      0.70980414
C      -2.70322027      0.27166410      1.25033785
O      -2.73785206      0.01712827      2.44626591
O      -2.35720920     -0.61062971      0.27307433
C      -1.88181714     -1.90465759      0.70308698
C      -3.05743507     -2.81998878      1.05366341
C      -3.96604038     -3.04481971     -0.15060095
O      -4.81510555     -4.15995323      0.09840282
C      -3.20827611     -3.32018569     -1.40843604
C      -1.88952261     -3.09403434     -1.55666156
C      -1.24537601     -3.36632560     -2.82532109
C       0.02330278     -3.02304684     -3.07849218
C       0.90935001     -2.29077130     -2.10136098
C       1.95931382     -3.27325592     -1.56937912
C       0.07144414     -1.57333092     -0.99798140
C       0.94485588     -0.93203130      0.10714318
C       1.91805464      0.12881329     -0.42865132
C       2.66544479      0.84277634      0.70400699
O       3.50088552     -0.11188263      1.36430181
C       3.50818805      2.00574671      0.15979051
C       4.09030236      2.86698821      1.29254549
O       4.96477026      2.03559086      2.08348765
C       4.88307070      4.05544572      0.76790941
C       4.01534481      5.14700618      0.14565512
O       4.64787891      5.96011154     -0.58554331
O       2.78876165      5.12205630      0.44062941
C      -1.01760530     -2.53706303     -0.42639959
Na      0.00000000      0.00000000      0.00000000
H      -0.42762119      1.85301902      1.65611567
H      -0.40286054      3.61818724      1.59962577
H      -0.58908043      2.69360919      0.09959109
H      -2.74337441      3.71669489      0.93684984
H      -2.60291783      2.76301087      2.41298711
H      -2.78523149      1.60587798     -0.42351147
H      -4.92854026      2.67241627      0.20860418
H      -5.09964063      0.90742824      0.22712229
H      -4.94377946      1.79125795      1.74957615
H      -1.25490396     -1.78565133      1.59581879
H      -2.68071383     -3.77993961      1.43333688
H      -3.65757311     -2.39417800      1.86637849
H      -4.60538381     -2.17011883     -0.31603120
H      -5.31395903     -3.95986173      0.90814521
H      -3.79931092     -3.69976830     -2.23792205
H      -1.82213245     -3.86808021     -3.59833194
H       0.45571898     -3.26880437     -4.04469306
H       1.43536148     -1.51726002     -2.67560104
H       2.48763527     -3.76372435     -2.39573112
H       2.71882848     -2.76581258     -0.96750062
H       1.50921460     -4.05944166     -0.95380832
H      -0.45847550     -0.74606430     -1.49635302
H       0.30052912     -0.43260388      0.83776979
H       1.48703782     -1.70793401      0.65980101
H       1.35505467      0.86313073     -1.01743498
H       2.64925140     -0.34271102     -1.09453947
H       1.94822258      1.22071654      1.44048454
H       4.19219901      0.42306989      1.81506148
H       2.89111992      2.62417913     -0.50029545
H       4.33492095      1.59372361     -0.43399660
H       3.28727226      3.19664259      1.96193033
H       5.39372165      2.64008093      2.71569619
H       5.44664041      4.51923399      1.58795955
H       5.63221965      3.71599020      0.04115455
H      -0.50605188     -3.40174617      0.02137355
