15
O=C(O)c1ccc(Cl)c(Cl)c1
O       2.58900891     -1.27927505      1.02161255
C       2.09643463     -0.37506511      0.37400505
O       2.85647777      0.55773348     -0.22345022
C       0.64644875     -0.16302363      0.14781773
C      -0.25336097     -1.07064410      0.72021684
C      -1.62854786     -0.90908065      0.53281570
C      -2.11251100      0.15977835     -0.22724046
Cl     -3.82341239      0.29958193     -0.41841529
C      -1.21472934      1.06888645     -0.80077269
Cl     -1.74240261      2.41233881     -1.75160024
C       0.16246094      0.90787106     -0.61363537
H       3.77529587      0.30064680      0.00404876
H       0.11295342     -1.90705133      1.31428764
H      -2.31700350     -1.62119453      0.98289294
H       0.85288737      1.61849751     -1.06258296
