27
CNCC(O)c1cccc(O)c1.Cl
C       3.74878616      0.04689005      0.13785872
N       2.78491188     -0.87136005      0.56548753
C       1.47191883     -0.41338561      0.83368776
C       0.78825810     -0.00107278     -0.43769033
O       0.77517557     -1.10150456     -1.29284699
C      -0.63442753      0.32509747     -0.06191858
C      -1.08900141      1.61477471     -0.04259418
C      -2.40499988      1.87678210      0.27848639
C      -3.25548595      0.81279463      0.58048749
C      -2.81524612     -0.49281048      0.56691067
O      -3.64932340     -1.57016378      0.86661985
C      -1.48576630     -0.70666585      0.23924333
Cl      0.68843461      0.00000000      0.00000000
H       3.69459133      0.34966351     -0.94190121
H       4.76233777     -0.45034981      0.20581523
H       3.80157422      0.95656795      0.75169864
H       2.87258258     -1.84389559      0.24401988
H       1.54587850      0.48935142      1.50561047
H       0.82895216     -1.14855569      1.34512428
H       1.21321257      0.90216651     -0.89745447
H      -0.16200922     -1.34725490     -1.48696429
H      -0.39510178      2.44185535     -0.28086295
H      -2.76024133      2.90306832      0.28409758
H      -4.29941210      1.03450642      0.82970032
H      -4.19190438     -2.04899887      0.12962712
H      -1.14526025     -1.75750046      0.22680390
H      -0.68843461      0.00000000      0.00000000
