11
CCC
C      -1.22286046      0.15694419     -0.45545624
C      -0.01140474     -0.58745667      0.07990450
C       1.23146742      0.28638618      0.07387278
H      -1.05825131      0.48355662     -1.48726868
H      -1.44147934      1.03994838      0.15357445
H      -2.10385411     -0.49231680     -0.44106051
H      -0.21393041     -0.92654224      1.10186988
H       0.16721134     -1.47990757     -0.53004349
H       1.47364850      0.61708933     -0.94120994
H       1.09042113      1.17348186      0.69963331
H       2.08903198     -0.27118328      0.46322652
