25
O=C1c2ccccc2C(=O)c2cc(O)ccc21
O      -0.06934285     -2.75779259      0.38663876
C      -0.12634378     -1.54044792      0.25874423
C      -1.43123474     -0.84910552      0.25101578
C      -2.61015127     -1.59277354      0.39104834
C      -3.84807938     -0.94770118      0.38487812
C      -3.91259468      0.43774480      0.23930925
C      -2.73930333      1.18102728      0.09960483
C      -1.49585760      0.53579773      0.10551185
C      -0.26023934      1.33029492     -0.04287131
O      -0.31378704      2.54806511     -0.17098568
C       1.04486473      0.64056912     -0.03532457
C       2.22059312      1.39075077     -0.17588566
C       3.44909723      0.73866428     -0.16847879
O       4.61819820      1.42557663     -0.30190141
C       3.52414971     -0.64260489     -0.02390491
C       2.35334822     -1.38936655      0.11603827
C       1.10942325     -0.74545253      0.11029867
H      -2.56814155     -2.67478074      0.50516304
H      -4.76239602     -1.52710093      0.49376635
H      -4.87742759      0.94033021      0.23451860
H      -2.79821538      2.26226438     -0.01356412
H       2.16288376      2.47027487     -0.28892538
H       4.42261982      2.37359227     -0.39378379
H       4.49222801     -1.13754876     -0.02010107
H       2.41570850     -2.47027721      0.22898960
