32
C=CC(C)(O)CC/C=C(\C)CC
C      -3.39559687     -1.45922680     -0.80058328
C      -2.92937092     -0.72276691      0.21891817
C      -2.55187308      0.74404805      0.18781011
C      -3.33575885      1.49202436      1.27422800
O      -2.91041010      1.31980473     -1.06814552
C      -1.03942821      0.95256066      0.40472470
C      -0.16195666      0.33217152     -0.68994807
C       1.29685091      0.60666075     -0.43198330
C       2.21744768     -0.24375545      0.06513352
C       1.91666797     -1.64471973      0.52694541
C       3.65750148      0.19929151      0.23023866
C       4.60100525     -0.50426891     -0.73548445
H      -3.62459171     -2.51184737     -0.66425738
H      -3.53422540     -1.04644010     -1.79491975
H      -2.78737566     -1.22123615      1.17750695
H      -4.41712860      1.38049855      1.12904847
H      -3.08601384      1.13281213      2.27861153
H      -3.12984607      2.56795035      1.23098947
H      -3.86979038      1.20089048     -1.17088911
H      -0.83223465      2.03160838      0.43246110
H      -0.74513847      0.54872924      1.38307205
H      -0.41638295      0.76202714     -1.66642119
H      -0.34765939     -0.74204137     -0.77884022
H       1.61270658      1.61109845     -0.71428779
H       2.37031166     -1.82546556      1.50745811
H       2.32070786     -2.37510812     -0.18068064
H       0.84696069     -1.83837117      0.64006802
H       3.74835576      1.28188179      0.07680747
H       3.97900659      0.01287793      1.26204980
H       5.61899458     -0.12041479     -0.61283478
H       4.29959824     -0.33755689     -1.77503714
H       4.62866657     -1.58371671     -0.55545433
