27
CC(NC(=O)C(Br)C(C)C)C(=O)O
C       2.72787569      0.26224885      2.13472564
C       2.31024089      0.49728511      0.68457332
N       0.99873839     -0.12480937      0.44569877
C       0.54709212     -0.42775823     -0.81711173
O       1.10293899      0.04701971     -1.80826866
C      -0.72293107     -1.27031404     -0.91040485
Br     -0.29175641     -2.96132560      0.00018141
C      -1.95836682     -0.60633265     -0.27970590
C      -2.17844543      0.80242704     -0.84874518
C      -3.23272971     -1.42744596     -0.52054482
C       2.35844444      2.00739218      0.35832261
O       2.90620698      2.84532488      1.06354116
O       1.82936059      2.34250791     -0.84160101
H       2.03162251      0.74532382      2.82976585
H       2.74269450     -0.80809721      2.36773823
H       3.72834340      0.66323810      2.32898789
H       3.03808291      0.00893541      0.02478869
H       0.62504992     -0.69660379      1.19678186
H      -0.89287542     -1.54078974     -1.95790555
H      -1.82021119     -0.50829986      0.80492118
H      -2.28434007      0.77693188     -1.93875819
H      -3.08557920      1.25327072     -0.43160129
H      -1.34613354      1.46918777     -0.60254360
H      -3.18350199     -2.40715515     -0.03681374
H      -4.10859710     -0.91235294     -0.11064681
H      -3.40610751     -1.58445820     -1.59074308
H       1.56488414      1.55464935     -1.37520670
