28
O=CC1CCC2C3CCC(C3)C12
O      -3.64935097     -1.23829768     -1.31968952
C      -2.47660405     -1.46572785     -1.04063643
C      -1.67344124     -0.68538962     -0.02417961
C      -2.32504392      0.63819196      0.36455899
C      -1.17049478      1.45171426      0.92841514
C       0.00613978      1.11556347      0.01222902
C       1.34735713      0.86939775      0.73389953
C       2.44569651      0.69641291     -0.33276651
C       2.12883803     -0.68249775     -0.93708614
C       0.88385651     -1.13035930     -0.14692934
C       1.20318006     -0.56838523      1.24097869
C      -0.31498119     -0.26892504     -0.60509999
H      -1.95348556     -2.32541393     -1.49480943
H      -1.55522473     -1.32742603      0.85615798
H      -2.75331895      1.14497432     -0.50920103
H      -3.12693716      0.50330105      1.09723402
H      -0.97483235      1.16345652      1.96730603
H      -1.39119659      2.52384231      0.92562059
H       0.09898891      1.87981098     -0.76865982
H       1.58994609      1.61474614      1.49410215
H       2.43032249      1.48962714     -1.08684835
H       3.43929304      0.68454819      0.12952546
H       2.96597080     -1.36891129     -0.76616489
H       1.94836244     -0.62792938     -2.01526196
H       0.70406454     -2.20653478     -0.18978484
H       0.39843733     -0.70341447      1.96832260
H       2.13186477     -0.96910819      1.66236305
H      -0.35740695     -0.20726645     -1.69994130
