38
CCCC(C)CC1(CCO)C(=O)NC(=S)NC1=O
C       4.83600373      0.78004796      1.31436655
C       3.79188788      0.33045353      0.30265429
C       2.39894460      0.25737525      0.93529679
C       1.26372710     -0.04416586     -0.07634684
C       1.41498756     -1.44822276     -0.66288793
C      -0.09689468      0.15742489      0.64175560
C      -1.43119941      0.08853622     -0.18231933
C      -1.29426005      0.73331449     -1.58429127
C      -2.54680636      0.65728643     -2.46592937
O      -3.71713323      1.05721389     -1.77402515
C      -2.42320111      0.89653248      0.65953264
O      -2.61117775      2.10498743      0.51336028
N      -3.04403514      0.22056032      1.67743075
C      -3.14532904     -1.13167426      1.77049280
S      -4.03879341     -1.84822588      2.97471681
N      -2.51018538     -1.87505507      0.82615422
C      -1.88298222     -1.36403935     -0.28054637
O      -1.67116638     -2.08736415     -1.25065223
H       4.60381633      1.77707935      1.70211547
H       5.82445159      0.82030471      0.84603249
H       4.88777968      0.08556982      2.15897802
H       3.78308068      1.03226050     -0.53905729
H       4.08996220     -0.64745897     -0.08803212
H       2.39746967     -0.49988966      1.72982734
H       2.19454938      1.22073040      1.42040841
H       1.34892271      0.68799194     -0.88791530
H       1.24853710     -2.21702658      0.09876252
H       2.40966816     -1.60566102     -1.08879416
H       0.71319284     -1.61467596     -1.48168664
H      -0.05164722      1.14950941      1.11556204
H      -0.14770777     -0.55317699      1.47924142
H      -1.02538273      1.79103752     -1.46366756
H      -0.48139919      0.27032720     -2.15337057
H      -2.70826633     -0.35983473     -2.83382071
H      -2.42638838      1.30068619     -3.34391822
H      -3.56620473      1.96218364     -1.43322192
H      -3.64373457      0.77473160      2.27604597
H      -2.74308612     -2.85967394      0.78219991
