32
C=C(Br)CC1(C(C)CC)C(=O)NC(=O)NC1=O
C      -3.49893866     -1.54609614     -0.54528829
C      -2.56789779     -0.89792431     -1.25946512
Br     -3.06942105      0.30304744     -2.60306742
C      -1.08018272     -1.14045132     -1.08919804
C      -0.29801483     -0.09017879     -0.24097766
C       1.13629566     -0.62811748      0.16170050
C       1.95547831     -1.18345318     -1.01587870
C       1.95650103      0.43393943      0.94209556
C       3.22190545     -0.11882888      1.58693550
C      -1.07865885      0.10306302      1.05367011
O      -1.24111496     -0.80164215      1.87313297
N      -1.61296494      1.33410611      1.29328990
C      -1.36816066      2.46819516      0.59044129
O      -1.83172290      3.54992123      0.93448700
N      -0.58357366      2.34667440     -0.50947626
C      -0.14678825      1.17953516     -1.06352185
O       0.36160507      1.19579922     -2.18370265
H      -3.22519199     -2.26435267      0.22267203
H      -4.56038841     -1.37978385     -0.70365885
H      -0.94934337     -2.12812908     -0.62308196
H      -0.63770745     -1.23736316     -2.08940212
H       0.98477645     -1.47714150      0.84410035
H       2.26393485     -0.39427436     -1.70711662
H       2.86415806     -1.67908260     -0.65927612
H       1.40291850     -1.94087066     -1.57785372
H       2.23583338      1.26118744      0.27910166
H       1.34416602      0.86292482      1.74297474
H       2.99700614     -0.98548242      2.21627575
H       3.96228014     -0.41293512      0.83781764
H       3.68356460      0.64691115      2.21901105
H      -2.14358090      1.44186420      2.14660311
H      -0.47677230      3.17893891     -1.07334378
