34
CCCCOCCOC(=O)c1ccccc1
C       6.31636261      0.16698201     -0.29252659
C       4.82724451      0.32610788     -0.55656390
C       4.01990063     -0.79445698      0.10273628
C       2.52488677     -0.67274134     -0.18026559
O       2.03381926      0.53494023      0.40130370
C       0.64069598      0.73584163      0.16316374
C      -0.22464225     -0.02168095      1.16966964
O      -1.61980661      0.25118874      0.96666198
C      -2.20702842     -0.45955761     -0.02855428
O      -1.64571447     -1.26832014     -0.75082551
C      -3.65078627     -0.11680291     -0.14040470
C      -4.27126954      0.81366204      0.70475045
C      -5.63079316      1.09923458      0.55552291
C      -6.37555465      0.45943597     -0.43481860
C      -5.76542081     -0.46734345     -1.27884125
C      -4.40699347     -0.75558441     -1.13305741
H       6.87500117      0.97642620     -0.77279026
H       6.68613415     -0.78342532     -0.69042724
H       6.52977447      0.19696604      0.78073159
H       4.50087047      1.30146761     -0.17811550
H       4.65200014      0.32269793     -1.63866005
H       4.37436817     -1.76654927     -0.25920746
H       4.18662474     -0.76176635      1.18634604
H       2.34484846     -0.66466828     -1.26143219
H       2.00694441     -1.53247606      0.25679563
H       0.44377987      1.80868494      0.27083545
H       0.38299356      0.48746447     -0.87285484
H      -0.03576410     -1.10124632      1.15053597
H       0.02795979      0.30397149      2.18516791
H      -3.71067324      1.32395668      1.48396114
H      -6.10911615      1.82147499      1.21288308
H      -7.43360547      0.68338230     -0.54882111
H      -6.34647524     -0.96624747     -2.05068303
H      -3.94056530     -1.48101887     -1.79718797
