34
c1ccc2cc3c(cc4c5c(cccc53)CC4)cc2c1
C       5.25847999     -0.62577904     -0.25980711
C       5.15801821      0.59267919      0.40367866
C       3.90124607      1.13353227      0.67936224
C       2.72809103      0.46235247      0.29479332
C       1.45512729      0.99461902      0.56553774
C       0.26451794      0.33514345      0.18706124
C       0.38505597     -0.91445590     -0.49314264
C      -0.76301547     -1.62530635     -0.89901872
C      -2.01794024     -1.10696395     -0.63561834
C      -2.12604543      0.09012804      0.01613949
C      -3.45068730      0.41749134      0.17423016
C      -3.79296844      1.59608496      0.81224189
C      -2.76549581      2.42309537      1.27965215
C      -1.41213101      2.06675660      1.10619606
C      -1.04454428      0.86136999      0.45394511
C      -4.35164629     -0.62954548     -0.41131864
C      -3.36249578     -1.68142607     -0.97013683
C       1.65876011     -1.44131937     -0.76090091
C       2.83051573     -0.77138813     -0.37701525
C       4.10223300     -1.30402216     -0.64796276
H       6.23552693     -1.04969191     -0.47599815
H       6.05636507      1.12354675      0.70738610
H       3.84328996      2.08732403      1.19906304
H       1.39676121      1.94786344      1.08494534
H      -0.67368116     -2.57658573     -1.41687353
H      -4.83215160      1.87741880      0.94962654
H      -3.01230279      3.35447450      1.78420254
H      -0.65119451      2.74192735      1.48659025
H      -4.97161153     -0.21316544     -1.21194374
H      -4.99599826     -1.06949305      0.35679016
H      -3.50887044     -2.65133094     -0.48369605
H      -3.48444143     -1.79507221     -2.05225687
H       1.74253967     -2.39476099     -1.28000014
H       4.20069359     -2.25550084     -1.16575234
