24
CCCCNC(=O)OCC#CI
C      -4.14757213     -0.49120327      0.44064698
C      -3.18256620      0.51391969     -0.16754378
C      -1.74134417      0.23160053      0.25310715
C      -0.77601489      1.24406882     -0.35874726
N       0.58462713      0.99863177      0.05811001
C       1.39359843      0.09099587     -0.55314886
O       1.10770844     -0.56396965     -1.54324455
O       2.56650922      0.02311172      0.11722726
C       3.48757310     -0.90988378     -0.45111634
C       4.71594982     -0.90723306      0.34972933
C       5.72181670     -0.90569911      1.00482453
I       7.46733625     -0.90195106      2.14312404
H      -4.11233829     -0.45672936      1.53422277
H      -3.90623050     -1.50990469      0.12072763
H      -5.17255519     -0.27043273      0.12667497
H      -3.47090229      1.52412060      0.14559372
H      -3.26564647      0.47651727     -1.25997925
H      -1.66066562      0.26281638      1.34698858
H      -1.45874728     -0.78345347     -0.05256649
H      -1.03124763      2.26044365     -0.04126616
H      -0.82463748      1.20344523     -1.45269697
H       0.93868170      1.40409270      0.91337766
H       3.04746396     -1.91394829     -0.44691863
H       3.71920337     -0.61935574     -1.48249768
