6
Br/C=C\Br
Br     -1.73286623      1.25394540     -0.55189017
C      -0.66777114     -0.17489981     -0.04133165
C       0.65613135     -0.17503464      0.12963762
Br      1.81627418      1.25358363     -0.09355289
H      -1.24450773     -1.07867407      0.12015977
H       1.17273958     -1.07892051      0.43232362
