18
Clc1ccc2ccc(Cl)cc2c1
Cl     -3.61158091      2.10709964      0.42329037
C      -2.28255376      1.02842738      0.24466990
C      -2.51293616     -0.34109119      0.15834543
C      -1.43527442     -1.21706869      0.01340794
C      -0.11973875     -0.73001907     -0.04624043
C       0.97335635     -1.59913813     -0.19178959
C       2.27643430     -1.10080562     -0.24967633
C       2.49560408      0.27049143     -0.16239565
Cl      4.10210531      0.88351527     -0.23386395
C       1.42483517      1.15174727     -0.01756575
C       0.10909493      0.66512662      0.04212964
C      -0.98433143      1.53390181      0.18767713
H      -3.52524364     -0.73392523      0.20288769
H      -1.63176619     -2.28530491     -0.05269746
H       0.81834192     -2.67395380     -0.26142667
H       3.11180320     -1.78672719     -0.36254527
H       1.61777924      2.22004527      0.04880427
H      -0.82592924      2.60767914      0.25698872
