9
Cl/C=C\CCl
Cl      1.72028706      1.37054757      1.04506056
C       1.41078105     -0.07394153      0.18225926
C       0.21624034     -0.45645744     -0.27999368
C      -1.07991586      0.27516707     -0.14327617
Cl     -2.26472322     -0.77555984      0.66560198
H       2.31200160     -0.66009841      0.04578614
H       0.16648632     -1.39943546     -0.82116770
H      -1.47525315      0.52311655     -1.13261550
H      -1.00590414      1.19666148      0.43834511
