34
CC(=O)Oc1ccccc1C(=O)OCC(=O)N(C)C
C       2.70625094      2.80544535     -1.80918310
C       2.73185960      1.33766581     -1.50486527
O       2.60783294      0.45406429     -2.34326514
O       2.93330578      1.16477127     -0.14052624
C       2.89070930     -0.17390002      0.26576136
C       4.11120701     -0.74973828      0.63181029
C       4.14542473     -2.06916737      1.08004404
C       2.96376124     -2.80370479      1.17672831
C       1.74208765     -2.22004179      0.82717454
C       1.69212994     -0.89472500      0.36667259
C       0.39148165     -0.26133165      0.02706259
O       0.18010008      0.94137811      0.04243951
O      -0.50338722     -1.21549755     -0.33811381
C      -1.81637233     -0.71435845     -0.59355465
C      -2.60121283     -0.44212463      0.69886509
O      -2.16451950     -0.81128596      1.79239964
N      -3.83175613      0.20536984      0.57324139
C      -4.51035726      0.62114400      1.78983213
C      -4.29142235      0.82261448     -0.66034067
H       2.51184162      2.95029881     -2.87571408
H       3.67375511      3.25111205     -1.56550447
H       1.90551604      3.28779003     -1.24292433
H       5.03050220     -0.17475563      0.56487224
H       5.09259231     -2.52428422      1.35937189
H       2.98987280     -3.83081610      1.53362575
H       0.83052097     -2.80456576      0.93399084
H      -2.35108634     -1.48951300     -1.15232466
H      -1.76127647      0.18211482     -1.22026927
H      -4.20683431      0.02028155      2.65124739
H      -5.59055791      0.51392914      1.65442267
H      -4.26602423      1.66964300      1.98498349
H      -5.38368268      0.88302199     -0.65526558
H      -3.98653814      0.24127366     -1.53294674
H      -3.86572419      1.82789200     -0.72781138
