42
CCCCCCCCCNCC(O)CO
C      -5.28135289     -0.44460541     -1.09629617
C      -5.47290388      0.41523984      0.14317064
C      -4.49672727      1.59104906      0.22952023
C      -3.01038875      1.21886605      0.25807903
C      -2.63119923      0.33383618      1.44802439
C      -1.11848242      0.13383797      1.59455009
C      -0.49597609     -0.63324147      0.42486010
C       0.96334314     -1.03622367      0.66921870
C       1.91036272      0.16469058      0.77564151
N       3.30989458     -0.22492536      0.98227555
C       3.98759564     -0.70474832     -0.23928055
C       4.37745358      0.46478673     -1.16594218
O       5.10795342      1.43268197     -0.39257638
C       5.26050597      0.01496916     -2.33124824
O       6.50556212     -0.48569983     -1.84648227
H      -6.06946084     -1.20234987     -1.15300249
H      -5.32833612      0.16159193     -2.00641478
H      -4.32073502     -0.96771530     -1.07687882
H      -6.49373827      0.81628654      0.13421795
H      -5.39635820     -0.21108077      1.03865488
H      -4.73447021      2.17423838      1.12792185
H      -4.66932266      2.25838238     -0.62419117
H      -2.42917060      2.14840429      0.30295029
H      -2.73752635      0.72890120     -0.68255445
H      -3.00682733      0.79252007      2.37096756
H      -3.11458890     -0.64579921      1.36033394
H      -0.93516112     -0.41767578      2.52484403
H      -0.63748926      1.11229363      1.70454670
H      -0.55309307     -0.03587335     -0.49222037
H      -1.07641134     -1.54680361      0.24602126
H       1.02628212     -1.64322108      1.58101868
H       1.27058877     -1.68261933     -0.16073661
H       1.80284812      0.82129862     -0.09388646
H       1.62556328      0.76607189      1.64572058
H       3.34105914     -0.96946356      1.68191267
H       4.90327599     -1.20347787      0.10065084
H       3.39770882     -1.45498298     -0.77492178
H       3.48524931      0.95857650     -1.56415446
H       4.65737763      1.42512736      0.47915063
H       5.48727097      0.86251698     -2.98618552
H       4.77507109     -0.76618132     -2.92347575
H       6.81475340      0.19440337     -1.21380369
