31
CCc1c(C)c(CN)nc2ccccc12
C      -2.78523944     -1.68378832     -0.13008260
C      -1.66485439     -1.53564204      0.89023412
C      -0.56154871     -0.60889814      0.40423870
C       0.58176544     -1.13915377     -0.24548395
C       0.73941267     -2.62188609     -0.46475714
C       1.59028769     -0.24411408     -0.62881935
C       2.87818619     -0.72094849     -1.28868711
N       3.86399203      0.35410857     -1.48802073
N       1.48891635      1.09979537     -0.44720037
C       0.39432365      1.60395875      0.13228986
C       0.33021275      2.98238287      0.28860621
C      -0.76509779      3.61008408      0.88116706
C      -1.82707512      2.84299890      1.33029958
C      -1.78272434      1.45599404      1.18390435
C      -0.67423518      0.80294269      0.58452522
H      -2.41283601     -2.08775725     -1.07708065
H      -3.26493392     -0.72356899     -0.34498713
H      -3.55264548     -2.36563652      0.24993936
H      -2.06801567     -1.17802063      1.84446078
H      -1.26002585     -2.52379102      1.13541813
H      -0.19657508     -3.07227762     -0.80858313
H       1.47436547     -2.85894218     -1.23846819
H       1.05463967     -3.10455877      0.46562339
H       2.64123022     -1.15150491     -2.26717412
H       3.34327261     -1.49245139     -0.66609473
H       3.36559686      1.09858941     -1.98398835
H       4.01652111      0.77604300     -0.56903169
H       1.16218318      3.58813337     -0.06365908
H      -0.78186190      4.69127509      0.98663221
H      -2.68933350      3.31672759      1.79216499
H      -2.63790352      0.88990651      1.54261437
