38
CC(=O)C(N=Nc1ccc(Cl)cc1[N+](=O)[O-])C(=O)Nc1ccccc1Cl
C      -0.68254086     -3.77954174      2.63100540
C       0.00245123     -3.05995290      1.49517513
O       0.57410437     -3.70685832      0.61243559
C      -0.05846872     -1.53888479      1.50099337
N       0.88651792     -1.03631060      0.47652229
N       1.99814141     -0.72268877      0.95377499
C       2.80917744     -0.18830224     -0.06423714
C       3.39411412     -1.04682894     -1.00787399
C       4.23300745     -0.54726978     -2.01015938
C       4.50599040      0.81908737     -2.07383891
Cl      5.54013607      1.42539622     -3.30602342
C       3.94976010      1.69497838     -1.14696046
C       3.10558532      1.17928696     -0.15283570
N       2.53447315      2.10629750      0.80891023
O       3.29423863      2.96370313      1.27957741
O       1.32966810      1.99706927      1.07660171
C      -1.45455974     -1.00697600      1.18171252
O      -2.45176510     -1.52669693      1.67883731
N      -1.46123644      0.09714229      0.34861170
C      -2.56353656      0.82858769     -0.14900246
C      -3.88310341      0.58545762      0.24138067
C      -4.93288983      1.34972725     -0.28139846
C      -4.67784815      2.36424625     -1.20116059
C      -3.36929611      2.61731140     -1.60514555
C      -2.32051620      1.85443854     -1.08379716
Cl     -0.71636487      2.19066130     -1.64851969
H      -1.73960061     -3.92270254      2.39837735
H      -0.57439605     -3.20977839      3.55741229
H      -0.21074948     -4.75547116      2.77763853
H       0.22094205     -1.17210483      2.49680589
H       3.18818584     -2.11600882     -0.96101460
H       4.66996485     -1.23170130     -2.73441732
H       4.16850256      2.75932961     -1.19837070
H      -0.55004523      0.41637338      0.02115999
H      -4.13393644     -0.18870668      0.95964112
H      -5.95372520      1.14813303      0.03624593
H      -5.49778636      2.95416535     -1.60326559
H      -3.17259562      3.40539219     -2.32712690
