14
CC(C)CCl
C      -0.32417819      1.40198958     -0.25443279
C       0.11904588     -0.05435574     -0.40286487
C       1.34154909     -0.33562834      0.47223127
C      -1.02573844     -1.04358950     -0.14416487
Cl     -1.67399998     -0.97225682      1.51241078
H      -1.19852091      1.60816029     -0.88064512
H      -0.57932913      1.64927709      0.78096484
H       0.47687872      2.08009249     -0.56831913
H       0.42807536     -0.19484645     -1.44719571
H       1.66325517     -1.37712755      0.36778948
H       2.18056409      0.30287785      0.17490340
H       1.14031503     -0.14458448      1.53114968
H      -0.68835355     -2.07088341     -0.31544656
H      -1.85956314     -0.84912500     -0.82638039
