26
Nc1ccc(-c2ccc(N)c(Cl)c2)cc1Cl
N       4.97086358     -0.06695870     -0.34763528
C       3.57720862     -0.05181494     -0.16196460
C       2.87418349      1.13434204     -0.38487025
C       1.47516745      1.16136435     -0.32904572
C       0.73417039     -0.00587430     -0.08637639
C      -0.73629666      0.02593383     -0.03028651
C      -1.51030887     -0.82964406     -0.82985019
C      -2.90952407     -0.80073440     -0.78031842
C      -3.57769648      0.05641901      0.09702581
N      -4.97930939      0.14671220      0.03141358
C      -2.80750303      0.94939614      0.86041123
Cl     -3.57027136      2.09013516      1.91543045
C      -1.40930922      0.92282778      0.81281847
C       1.43934742     -1.20639171      0.08588609
C       2.83727212     -1.23041108      0.02978959
Cl      3.64011618     -2.74944821      0.23987086
H       5.41230542     -0.88446532      0.06926335
H       5.43562847      0.80085543     -0.10223506
H       3.40945831      2.05285244     -0.61274997
H       0.96473830      2.10718757     -0.50448988
H      -1.02744507     -1.51525359     -1.52460340
H      -3.47301188     -1.45291178     -1.44308112
H      -5.38151656      0.59383766      0.85318104
H      -5.44404180     -0.72144742     -0.21282728
H      -0.84294685      1.60594315      1.44209835
H       0.89872148     -2.13245125      0.26903217
