59
CC(=O)OCC(=O)[C@H]1CC[C@H]2[C@@H]3CCC4=CC(=O)CC[C@]4(C)[C@H]3CC[C@]12C
C       7.71627984      1.42619653     -0.90257423
C       6.24082613      1.25275584     -1.08886527
O       5.70232412      0.95262508     -2.14584225
O       5.58851885      1.47550322      0.08538569
C       4.18626969      1.22501803      0.01709334
C       3.85579503     -0.26567432     -0.06419452
O       4.62271942     -1.11502852      0.39471364
C       2.52691657     -0.63630501     -0.72137289
C       2.42034600     -2.14203766     -1.07653225
C       0.95532621     -2.54689101     -0.84824698
C       0.23779637     -1.21732340     -0.65839154
C      -1.15941430     -1.21829315     -0.02739265
C      -2.12940803     -2.10978546     -0.81406099
C      -3.52491494     -2.07985203     -0.20415455
C      -4.05970846     -0.67251180     -0.08067525
C      -5.28858928     -0.38697087     -0.54670042
C      -5.91047270      0.94186695     -0.34675769
O      -7.01785867      1.17003145     -0.82670258
C      -5.18550033      1.93798554      0.51812783
C      -3.68048265      1.79532401      0.34347737
C      -3.14990955      0.35437775      0.60709216
C      -3.17733610      0.08137452      2.12777322
C      -1.69266431      0.24682025      0.01307833
C      -0.67130502      1.20995180      0.67405017
C       0.75174665      1.08870711      0.09968724
C       1.25928684     -0.36095327      0.12464860
C       1.47293743     -0.81959947      1.58943698
H       8.10314013      0.62814183     -0.26427084
H       8.21368334      1.37555078     -1.87580371
H       7.92344723      2.40550433     -0.46211708
H       3.74409312      1.76694902     -0.82604655
H       3.74182046      1.61480900      0.93739331
H       2.47839634     -0.07726552     -1.66654384
H       2.70054933     -2.29386245     -2.12549467
H       3.07732962     -2.78095094     -0.47758924
H       0.86532312     -3.18261213      0.03953323
H       0.56337759     -3.11084877     -1.70068676
H       0.12736336     -0.78547402     -1.66760518
H      -1.09535147     -1.61764273      0.99054530
H      -1.77187601     -3.14599502     -0.81892341
H      -2.17685040     -1.78475264     -1.86151504
H      -3.50028654     -2.53951353      0.79163060
H      -4.18863310     -2.70472897     -0.81452398
H      -5.91557955     -1.11979144     -1.04297322
H      -5.49015403      1.78938721      1.55883649
H      -5.48807396      2.94643724      0.21447082
H      -3.18540795      2.51726073      1.00398105
H      -3.43052852      2.09343051     -0.68463619
H      -2.68918492     -0.86280507      2.38883007
H      -4.20426360      0.02304553      2.50741732
H      -2.67587519      0.87666990      2.68934350
H      -1.76252590      0.56940184     -1.03878190
H      -0.63298042      1.03961964      1.75455648
H      -0.99434571      2.24791157      0.53804823
H       0.74692799      1.46763138     -0.93056880
H       1.41851000      1.74637727      0.66732341
H       0.54877218     -0.82022149      2.17297522
H       1.89033658     -1.82944111      1.65427783
H       2.16932208     -0.15007475      2.10681699
