43
CN/C(=C/[N+](=O)[O-])NCCSCc1ccc(CN(C)C)o1
C      -5.25457464     -2.59481932     -0.95325693
N      -3.96428307     -1.94495947     -0.83370204
C      -3.59337292     -0.72870453     -1.39398753
C      -4.52736666      0.11799918     -1.87901657
N      -4.21805662      1.38537751     -2.49499684
O      -5.19633740      2.04909835     -2.86553524
O      -3.03702914      1.73655620     -2.63331900
N      -2.22760162     -0.48726760     -1.42560075
C      -1.30043866     -0.80776720     -0.33646780
C      -1.58633583     -0.02134062      0.94986760
S      -1.66976145      1.80492132      0.78041545
C      -0.03182251      2.16088035      0.06939297
C       1.07095942      1.77293650      0.98160596
C       1.65570089      2.37832602      2.07428724
C       2.67415646      1.50289152      2.52011969
C       2.65762671      0.41691603      1.66911354
C       3.45525979     -0.84327556      1.60108529
N       4.61377402     -0.82585385      0.69236224
C       4.22662451     -0.65094066     -0.70509612
C       5.62790191      0.14759970      1.08392823
O       1.67557965      0.57506130      0.73440696
H      -5.23522033     -3.54655324     -0.41358258
H      -5.49131731     -2.80123233     -2.00170641
H      -6.04765187     -1.98058458     -0.51570951
H      -3.18916021     -2.59870531     -0.92171974
H      -5.59326923     -0.03636877     -1.86675478
H      -2.02467859      0.44760159     -1.80319838
H      -1.33052007     -1.88106732     -0.11642508
H      -0.28273823     -0.61190320     -0.68848001
H      -2.55521924     -0.33196769      1.35614827
H      -0.84130564     -0.27101173      1.71210967
H       0.06576002      1.67665005     -0.90670094
H       0.01654520      3.23981861     -0.11411542
H       1.37391708      3.33269173      2.49781524
H       3.34238582      1.64312927      3.35835058
H       3.80330684     -1.09683446      2.61086566
H       2.79136231     -1.66986495      1.31581576
H       5.09226804     -0.80660111     -1.35896329
H       3.47811759     -1.39538160     -0.99834387
H       3.82515188      0.34671519     -0.91327309
H       5.28880760      1.18311859      0.97110656
H       6.52950749      0.02148266      0.47368916
H       5.93334801     -0.00676658      2.12486622
