38
CCN1CCOc2cc(COc3ccccc3)cnc21
C      -4.26687448      1.91047709     -0.23475481
C      -4.36457108      0.60785119     -1.01735009
N      -3.75327519     -0.51911937     -0.31929319
C      -4.39263714     -1.04565288      0.88066334
C      -3.75943400     -2.39004119      1.23375645
O      -2.36342390     -2.25664418      1.53380334
C      -1.71054737     -1.44919735      0.62969985
C      -0.31792101     -1.49712522      0.67319819
C       0.42696102     -0.70317916     -0.19683672
C       1.92909504     -0.75749998     -0.22250836
O       2.44590701      0.57071203     -0.28903457
C       3.80488871      0.70847019     -0.35477667
C       4.73896992     -0.32864765     -0.35858658
C       6.10595708     -0.04128988     -0.43129072
C       6.54412860      1.28012601     -0.49993149
C       5.61620855      2.31824018     -0.49569522
C       4.25230913      2.03078913     -0.42319453
C      -0.28383506      0.09751154     -1.08180890
N      -1.63564257      0.16856267     -1.13953771
C      -2.35447855     -0.58719176     -0.27984507
H      -3.22715366      2.19517980     -0.04676194
H      -4.74181154      2.72148173     -0.79605241
H      -4.77300143      1.83219309      0.73266677
H      -5.42450932      0.38097397     -1.18638893
H      -3.93038882      0.73418537     -2.01671116
H      -5.46544260     -1.18255910      0.70570333
H      -4.26896973     -0.34133604      1.71286107
H      -4.24575812     -2.80625712      2.12211701
H      -3.87692308     -3.11682663      0.41991792
H       0.16962853     -2.15769087      1.38434151
H       2.23508356     -1.33703433     -1.10232800
H       2.29496406     -1.24490411      0.68953524
H       4.44294512     -1.37067232     -0.30592910
H       6.83050617     -0.85187415     -0.43412925
H       7.60703497      1.50004260     -0.55620124
H       5.95097094      3.35072652     -0.54832635
H       3.53090362      2.84445554     -0.41923167
H       0.23013663      0.73276465     -1.79972473
