25
CCOC(=O)N1CCC(=O)CC1
C       3.84589890      0.31672749      0.20205329
C       3.03809425     -0.76701988     -0.48694826
O       1.67238969     -0.35044542     -0.63124483
C       0.85418379     -0.60412690      0.42522283
O       1.22519788     -1.14827443      1.45826010
N      -0.45093199     -0.17885876      0.20184235
C      -0.79067293      0.71360956     -0.90662551
C      -2.21200519      0.50103618     -1.39577040
C      -3.15105685      0.50962513     -0.21809149
O      -4.18627752      1.17344548     -0.21924953
C      -2.80571279     -0.42429672      0.91193195
C      -1.36975796     -0.17998740      1.33669586
H       3.76382187      1.26259912     -0.34342918
H       3.47439365      0.50038769      1.21510333
H       4.90077863      0.03464152      0.26286117
H       3.11117286     -1.72307085      0.04398717
H       3.42963436     -0.93083388     -1.49631359
H      -0.10222106      0.57907767     -1.74632927
H      -0.65900426      1.73908264     -0.53960588
H      -2.49489011      1.28947563     -2.10018571
H      -2.31424635     -0.46609565     -1.90007026
H      -2.94276024     -1.45077305      0.55482601
H      -3.48657442     -0.25631874      1.75215015
H      -1.07493315     -0.93784059      2.07039241
H      -1.27452106      0.79823417      1.82457208
