14
OC(=S)c1cccnc1
O      -2.57108731     -1.03711110      0.17039078
C      -1.91760839      0.13918846      0.20150326
S      -2.86968551      1.47982337      0.39989802
C      -0.45742100      0.01004559      0.05099282
C       0.39296135      1.12114482      0.05801487
C       1.76877345      0.94270449     -0.08832542
C       2.25508964     -0.34511828     -0.23779540
N       1.46974003     -1.44219418     -0.24994356
C       0.13466511     -1.24015166     -0.10563100
H      -3.52265865     -0.86189973      0.27574636
H       0.00743906      2.13036714      0.17557376
H       2.44486289      1.79100879     -0.08553996
H       3.31868480     -0.53378773     -0.35497312
H      -0.45375548     -2.15401997     -0.12206637
