49
Cn1nc(-c2cnc3[nH]cc(C(=O)N[C@]4(C)C[C@H](N)C4)c3n2)c2ccc(F)cc21
C      -5.45230586      2.40669850      0.62775764
N      -4.10658669      2.01251679      0.28121577
N      -3.89941017      1.26655080     -0.81857793
C      -2.57001070      1.05561861     -0.83916312
C      -1.93642493      0.24904552     -1.88641959
C      -2.53025562      0.13572516     -3.14586557
N      -2.00145983     -0.55446275     -4.19347774
C      -0.83114274     -1.12438442     -3.84544165
N      -0.03487975     -1.87275983     -4.66398043
C       1.07227190     -2.28918424     -3.96882087
C       0.98681240     -1.81303479     -2.66524131
C       1.96912580     -2.07055157     -1.62112650
O       3.05199217     -2.59431992     -1.86387391
N       1.57311089     -1.69916632     -0.35108002
C       2.42232048     -1.85088065      0.85291956
C       2.60845514     -3.32341231      1.20037413
C       1.92959414     -0.98350220      2.05171095
C       3.40350840     -0.61666839      2.31456228
N       3.50664021      0.82317510      2.51474261
C       3.69717672     -0.95375752      0.83916219
C      -0.21534848     -1.05707267     -2.59937414
N      -0.75900021     -0.35659203     -1.56479955
C      -1.93246230      1.72582304      0.25428122
C      -0.60570447      1.89518539      0.70612427
C      -0.36392729      2.64382224      1.86356195
C      -1.42078316      3.21964098      2.55527587
F      -1.16626760      3.93126386      3.66186455
C      -2.74192448      3.08373063      2.13033620
C      -2.96526087      2.33124466      0.96823852
H      -6.14273666      2.07935064     -0.15413835
H      -5.48355463      3.49549970      0.71504760
H      -5.71367598      1.93442620      1.57789323
H      -3.47677840      0.62549706     -3.35984621
H      -0.24864015     -2.07351123     -5.63079522
H       1.83064743     -2.89862960     -4.44499660
H       0.66768581     -1.23878939     -0.27904440
H       1.64062843     -3.81841179      1.33712545
H       3.15371327     -3.85715442      0.41570986
H       3.17618284     -3.45071651      2.12858063
H       1.28012219     -0.14976839      1.76269409
H       1.43721189     -1.52696198      2.86465234
H       3.92331347     -1.23886257      3.04896386
H       3.19632732      1.12749726      3.43721290
H       4.45738002      1.17854937      2.41286376
H       3.64026044     -0.10893627      0.14003816
H       4.64146039     -1.47875481      0.66375667
H       0.22771516      1.45395769      0.16527083
H       0.65235465      2.77609716      2.22386875
H      -3.54747060      3.54933025      2.68588687
