54
CCCCOCCOCCOCc1cc2c(cc1CCC)OCO2
C       2.35272005     -2.80624812      0.67845153
C       3.42308044     -1.91370671      0.07767150
C       2.98213616     -0.45604608      0.06703514
C       4.05277113      0.45956375     -0.51475284
O       3.65230579      1.82535482     -0.40747098
C       2.83542140      2.25102132     -1.49688974
C       2.17578038      3.59210486     -1.16227543
O       0.99047430      3.41883400     -0.37292397
C       1.26237326      3.31535115      1.03053203
C      -0.04205752      3.04384809      1.78449547
O      -0.40855503      1.66134384      1.79102140
C      -0.80759071      1.17598099      0.50626412
C      -1.37160758     -0.23841855      0.58004607
C      -1.23815075     -0.99173898      1.76576350
C      -1.73794367     -2.27454599      1.80126741
C      -2.34740419     -2.83930768      0.71177392
C      -2.48501141     -2.15631738     -0.47583005
C      -1.99429223     -0.83666903     -0.55839650
C      -2.15545589     -0.09583673     -1.87155759
C      -3.42135793      0.76071953     -1.95126368
C      -4.69282469     -0.05735877     -2.11322932
O      -2.77539428     -4.10496433      0.95399381
C      -2.38789392     -4.25691120      2.33567054
O      -1.69392576     -3.11598307      2.86816045
H       2.11135417     -2.49786960      1.70008141
H       2.69630202     -3.84581844      0.70640691
H       1.43392853     -2.77037612      0.08609133
H       3.64303363     -2.24353366     -0.94241716
H       4.34704571     -2.02259256      0.64602964
H       2.73045782     -0.12719698      1.08084524
H       2.06037551     -0.36423604     -0.51123233
H       4.28561583      0.20359125     -1.55523620
H       4.97657218      0.35443433      0.06175030
H       2.06771800      1.50495072     -1.71776202
H       3.48446006      2.36871946     -2.36934785
H       2.86760620      4.28269943     -0.66682399
H       1.84240215      4.05359116     -2.09654695
H       1.67979222      4.26892019      1.36324477
H       1.97526438      2.51206599      1.22761767
H       0.09641803      3.31640200      2.83564697
H      -0.86984060      3.64053691      1.38501976
H      -1.57014731      1.85251318      0.10068089
H       0.06698464      1.14568576     -0.15390273
H      -0.75403407     -0.57934212      2.64487569
H      -2.96914146     -2.63488767     -1.32094192
H      -1.27893390      0.53978325     -2.03664473
H      -2.13757242     -0.81225116     -2.70175008
H      -3.52016253      1.40047341     -1.06934988
H      -3.33329202      1.42600359     -2.81846867
H      -5.54865394      0.60730141     -2.26947859
H      -4.89878690     -0.65743108     -1.22192965
H      -4.62420251     -0.72438060     -2.97543133
H      -3.28613608     -4.42416646      2.93294090
H      -1.74202470     -5.13365927      2.42454905
