36
C=C(C)C(=O)OCCC[Si](OC)(OC)OC
C       3.16837871     -1.91190734      1.01931008
C       3.74852774     -0.78777958      0.56420237
C       5.13131889     -0.37711883      0.97227492
C       3.06622109      0.14363036     -0.38288995
O       3.58563224      1.16979037     -0.79671692
O       1.82403933     -0.29832918     -0.69782553
C       1.07071122      0.52425368     -1.59935190
C       0.34871299      1.64893067     -0.85272331
C      -0.49285859      1.19185339      0.34726204
Si     -2.05028820      0.18309108     -0.03499771
O      -2.97388040      0.96012034     -1.18740477
C      -3.71404442      2.10741613     -0.80338708
O      -1.64326769     -1.32525142     -0.61884479
C      -2.65430691     -2.10396782     -1.23841824
O      -2.97844178     -0.01920838      1.33683473
C      -2.46147988     -0.80837632      2.39617726
H       3.68619889     -2.57326378      1.70678293
H       2.16707767     -2.21057131      0.72235483
H       5.11080797      0.59681076      1.47251173
H       5.58334462     -1.09483193      1.66530171
H       5.78525767     -0.30686285      0.09671315
H       1.71730467      0.93504695     -2.38445402
H       0.35342023     -0.12720199     -2.10791051
H      -0.26821339      2.21264307     -1.56292971
H       1.10320024      2.34745317     -0.46960598
H       0.12867830      0.62471825      1.04920330
H      -0.82381791      2.08798770      0.88631985
H      -3.05985316      2.89526493     -0.41311829
H      -4.21621293      2.49983353     -1.69325747
H      -4.48589353      1.85531883     -0.06762384
H      -2.22122522     -3.07481910     -1.49909093
H      -3.49653424     -2.28394530     -0.56052916
H      -3.00512218     -1.63515423     -2.16460432
H      -1.53612563     -0.38121646      2.79851517
H      -2.29508696     -1.84418303      2.07969365
H      -3.20217941     -0.82017436      3.20194552
