20
NCCO.O=C(O)CS
N       1.63010611     -0.00778839      0.03902056
C       0.41737890     -0.79388657     -0.21563910
C      -0.84998441     -0.02540906      0.17523844
O      -0.88470413      1.22773811     -0.50549121
O      -0.41257526      1.35727217      0.77614309
C      -0.55327949      0.40340655      0.02795996
O      -1.73070031      0.20977785     -0.60400453
C       0.43939260     -0.69339902     -0.27127417
S       2.13551862     -0.18535877      0.13134399
H       1.65554844      0.25611527      1.02293441
H       1.50469353      0.88091575     -0.45658834
H       0.38874746     -1.02615471     -1.28565145
H       0.46957847     -1.73894608      0.33372213
H      -1.73943857     -0.59934950     -0.10264843
H      -0.87234703      0.16579453      1.25313313
H      -1.71957878      1.66097065     -0.25803014
H      -2.28205915      0.96985112     -0.31974626
H       0.40229836     -0.94462218     -1.33481723
H       0.17642337     -1.57242534      0.32336835
H       1.82498127      0.45549763      1.27102680
