31
CC(CO)CC(C)c1ccccc1
C      -1.70728797     -1.81444364      0.84706967
C      -1.62234676     -0.28792810      0.77670003
C      -2.95049898      0.31167020      1.26802051
O      -2.87189001      1.72644213      1.38043128
C      -1.27997454      0.21418065     -0.64667917
C       0.04084286     -0.32193692     -1.24795457
C       0.22198712      0.21043703     -2.67606646
C       1.26821767      0.00337098     -0.41347176
C       1.58378402      1.31967128     -0.04356726
C       2.71928264      1.59256796      0.72203289
C       3.55700463      0.55526729      1.12411519
C       3.26110344     -0.75571594      0.75955294
C       2.12568890     -1.03002261     -0.00539979
H      -0.73913990     -2.28136752      0.64579050
H      -2.43227966     -2.20419823      0.12459239
H      -2.01722002     -2.14112515      1.84573920
H      -0.83451384      0.05091733      1.46073023
H      -3.78049805      0.05796741      0.59921888
H      -3.19545773     -0.07547663      2.26270774
H      -2.91228902      2.09805947      0.48382611
H      -2.10344194     -0.06150986     -1.31974964
H      -1.25061091      1.31058726     -0.64400739
H      -0.04777067     -1.41206145     -1.33618660
H       1.13902986     -0.18364715     -3.12849627
H      -0.61895846     -0.09113451     -3.30991559
H       0.28242978      1.30418939     -2.69908551
H       0.94758371      2.14759175     -0.34650796
H       2.94851669      2.61658501      1.00494129
H       4.43979509      0.76877422      1.72052532
H       3.91432559     -1.56653456      1.07078756
H       1.91458647     -2.06117707     -0.27969375
