8
C1CN1
C       0.76225510     -0.22576874     -0.05792967
C      -0.73092582     -0.30441841      0.09185322
N      -0.10213311      0.82390111     -0.58553781
H       1.36143865      0.02460635      0.80792632
H       1.23684520     -0.86342823     -0.79323488
H      -1.16945428     -0.10870190      1.06180332
H      -1.27281195     -0.99561862     -0.54148777
H      -0.08521380      1.64942843      0.01660728
