27
O=C(c1ccc(Cl)cc1Cl)N(O)c1ccccc1
O       0.03349452      1.96850499     -0.67209491
C      -0.34227461      0.87411913     -0.25863161
C      -1.79522553      0.74897459     -0.01279214
C      -2.64741526      0.83693644     -1.12299499
C      -4.02895550      0.74479794     -0.94804381
C      -4.55328834      0.57817892      0.33337586
Cl     -6.25654973      0.46487416      0.54770066
C      -3.71204474      0.50956481      1.44412953
C      -2.32795692      0.60147869      1.27319764
Cl     -1.33485912      0.54563999      2.68621357
N       0.43444919     -0.25587734     -0.02844351
O      -0.25946470     -1.44864034      0.29454214
C       1.82885790     -0.41155707     -0.26342281
C       2.41840400     -1.68526898     -0.17949002
C       3.78922763     -1.86719057     -0.39153184
C       4.59824902     -0.77615422     -0.68879733
C       4.03569555      0.49323679     -0.77398356
C       2.66337460      0.67319126     -0.56233128
H      -2.23375137      0.97808157     -2.11981694
H      -4.68783035      0.80819830     -1.81089953
H      -4.13535697      0.39279451      2.43861575
H      -0.12892001     -1.47049903      1.26206471
H       1.81798607     -2.56530805      0.03617361
H       4.22031914     -2.86302846     -0.32803709
H       5.66335380     -0.91353516     -0.85532469
H       4.66158145      1.35196804     -1.00462455
H       2.27890026      1.68651910     -0.62926148
