23
Cc1ncc2nc(C)c(C)nc2n1
C       4.34849161      0.44273529      0.32143077
C       2.95249818     -0.06236103      0.13228590
N       2.78639123     -1.37295894     -0.09340824
C       1.50788151     -1.78488305     -0.22920764
C       0.40135126     -0.97309045     -0.14619312
N      -0.86487410     -1.44292850     -0.29146640
C      -1.85944136     -0.53238907     -0.18393160
C      -3.25984099     -1.03963588     -0.34253489
C      -1.57525132      0.80883185      0.06300323
C      -2.65390872      1.84184157      0.18780098
N      -0.29767170      1.25134613      0.20414518
C       0.70286859      0.37117495      0.10166077
N       1.95003038      0.82135567      0.24275343
H       4.61622310      0.39710829      1.38098185
H       4.43247764      1.47900921     -0.01995227
H       5.05853277     -0.16411233     -0.24868324
H       1.38486623     -2.84781940     -0.41676843
H      -3.74994808     -0.55116994     -1.19020617
H      -3.26270599     -2.11856303     -0.52991793
H      -3.83854603     -0.85625592      0.56786218
H      -2.22437219      2.83048666      0.38094248
H      -3.23320315      1.90362381     -0.73847334
H      -3.32184887      1.59865411      1.01972567
