33
C=CCn1cnc2c(=O)[nH]c(Nc3ccccc3)nc21
C       5.59669628     -0.81720909     -1.54469420
C       4.28828475     -0.63215648     -1.32335995
C       3.49071983     -1.34238162     -0.26801263
N       2.90152381     -0.41082316      0.67467243
C       3.51344669      0.08744010      1.79793494
N       2.72010866      0.89078386      2.47820126
C       1.55424413      0.90837887      1.75442208
C       0.31336582      1.61293320      1.98699455
O       0.08061512      2.37083647      2.92320104
N      -0.63021921      1.33873001      1.00908205
C      -0.43772096      0.49658272     -0.07953447
N      -1.46367518      0.35397365     -0.97375931
C      -2.83297918      0.18118122     -0.68006510
C      -3.76245364      0.38163049     -1.71142318
C      -5.13360877      0.24440514     -1.48176461
C      -5.59513708     -0.09907481     -0.21441700
C      -4.68608877     -0.30793702      0.81939388
C      -3.31428500     -0.16880670      0.58768137
N       0.69511599     -0.12451860     -0.30641731
C       1.63911661      0.10848674      0.63661532
H       6.18882644     -1.51116718     -0.95591508
H       6.10803434     -0.26695397     -2.32970097
H       3.74156530      0.07444784     -1.94603288
H       2.68299851     -1.91855407     -0.73184516
H       4.10611446     -2.04371707      0.30745606
H       4.53103448     -0.16603924      2.06681318
H      -1.50423223      1.83234917      1.09421825
H      -1.18986921     -0.20214457     -1.77876620
H      -3.42279404      0.66328759     -2.70578165
H      -5.83966243      0.40933054     -2.29171775
H      -6.66150470     -0.20732287     -0.03276508
H      -5.04310342     -0.58666967      1.80806872
H      -2.63447741     -0.37196266      1.41121738
