25
COC(=O)CC(C(C)=O)C(=O)OC
C      -4.07001080      1.37795640      0.47412701
O      -2.74999927      1.46448006     -0.06393052
C      -1.86510294      0.59432077      0.49558321
O      -2.11453803     -0.17679534      1.41211577
C      -0.51292189      0.75592215     -0.15011978
C       0.41232258     -0.40072864      0.24100603
C       0.05695305     -1.66411940     -0.52604929
C       0.72436938     -2.94538885     -0.08936799
O      -0.76432882     -1.66576971     -1.44484740
C       1.84275051      0.01171161      0.01734805
O       2.57309936     -0.42668374     -0.85938114
O       2.21608191      0.93817800      0.94617825
C       3.56625580      1.38871692      0.81412426
H      -4.06779279      1.64292724      1.53601660
H      -4.70132348      2.09328746     -0.06016177
H      -4.48098486      0.37449946      0.32496933
H      -0.63629924      0.81208490     -1.23800843
H      -0.11109364      1.71726052      0.19076669
H       0.30829404     -0.64635266      1.30592642
H       0.32178707     -3.78218817     -0.66744914
H       1.80137443     -2.89107458     -0.25898513
H       0.51782930     -3.12304166      0.96901339
H       3.75509776      2.12622778      1.59900919
H       4.26236084      0.55466359      0.94668991
H       3.71581974      1.86990588     -0.15742674
