21
Cn1c(=O)c2[nH]c(Cl)nc2n(C)c1=O
C      -2.70176468     -1.31325169      0.21310346
N      -1.37378723     -0.73803148      0.12465730
C      -0.27889782     -1.57354336      0.35553522
O      -0.34336069     -2.76661353      0.63008359
C       0.95809759     -0.89329280      0.23964649
N       2.23834943     -1.34297664      0.38730914
C       3.03950796     -0.26314136      0.16397633
Cl      4.71970901     -0.45546417      0.26548810
N       2.37260735      0.83228367     -0.11269190
C       1.07140764      0.42961183     -0.06336140
N      -0.03710035      1.21140983     -0.28224090
C       0.11565914      2.61921092     -0.60360332
C      -1.30839499      0.63706028     -0.19207811
O      -2.33608889      1.29453030     -0.37938348
H      -3.21131617     -1.18097674     -0.74699512
H      -2.68209419     -2.37747527      0.46061093
H      -3.26988043     -0.77987290      0.98231072
H       2.53555637     -2.28212866      0.61520884
H       0.64105333      3.11766913      0.21716912
H       0.70003277      2.71373236     -1.52433148
H      -0.84929515      3.11126029     -0.75041353
