48
O=S(=O)(NCC(c1ccccc1)N1CCCCC1)c1ccc(Cl)cc1
O       2.86313251     -0.59708710      3.65184785
S       2.61951644      0.38772577      2.62223035
O       3.09632645      1.74852201      2.73067885
N       0.96454087      0.43391520      2.35710310
C       0.43905108      1.39017612      1.35094117
C      -1.01984410      0.97795995      0.98076695
C      -1.67693534      1.91782124     -0.02456285
C      -2.99733848      2.34846199      0.19700440
C      -3.63293727      3.21135243     -0.69798777
C      -2.96019741      3.65848455     -1.83120207
C      -1.65347306      3.24200270     -2.07025373
C      -1.01622747      2.37878581     -1.17513814
N      -1.08839336     -0.48123557      0.65716945
C      -0.50734007     -0.84812089     -0.64187415
C      -0.43815835     -2.37005766     -0.79062982
C      -1.81361942     -3.00459017     -0.62236024
C      -2.45900641     -2.53777965      0.67705430
C      -2.45510716     -1.01134737      0.78577700
C       3.23196219     -0.29216674      1.09532812
C       3.09425242     -1.66441252      0.85845064
C       3.56825009     -2.20612826     -0.33779253
C       4.18299807     -1.37858363     -1.27857461
Cl      4.75631137     -2.04766528     -2.75587821
C       4.33783927     -0.01333255     -1.03160295
C       3.86651378      0.53504036      0.16306002
H       0.54577447     -0.49715618      2.25893186
H       1.07734118      1.38878403      0.46428772
H       0.45048063      2.39978593      1.77690427
H      -1.56375000      1.10274013      1.92986184
H      -3.54417949      2.01278186      1.07624678
H      -4.65350057      3.53453453     -0.50901828
H      -3.45423896      4.33027358     -2.52826444
H      -1.12882001      3.58850506     -2.95725671
H      -0.00004778      2.06697098     -1.40145038
H      -1.09469712     -0.43839965     -1.47239253
H       0.51146717     -0.45959808     -0.73645662
H       0.24774159     -2.78363060     -0.04094176
H      -0.02983652     -2.62757827     -1.77444121
H      -2.45202055     -2.72483454     -1.46933328
H      -1.72824048     -4.09668011     -0.62956844
H      -3.48812367     -2.91020791      0.73309319
H      -1.91670094     -2.96740256      1.52905432
H      -3.11816700     -0.59179488      0.01924393
H      -2.87300578     -0.74556236      1.76417085
H       2.62465873     -2.31131139      1.59685552
H       3.46032112     -3.27115609     -0.52827315
H       4.82895510      0.62541067     -1.76176960
H       3.99647224      1.59778511      0.35764180
