36
NCCNCCNCCNCCN
N      -5.96734600      1.20236456      0.51031192
C      -5.23807432     -0.05713459      0.33950626
C      -3.74890592      0.09733782      0.70266039
N      -3.00442506     -1.16834223      0.63901538
C      -2.67203857     -1.56292949     -0.74101331
C      -1.42013083     -0.83899637     -1.28859493
N      -0.32776248     -0.85672506     -0.29894834
C       0.86624984     -0.19063746     -0.83343831
C       2.00769572     -0.19882415      0.20291720
N       3.20236352      0.46635265     -0.33074498
C       4.29247238      0.45126317      0.64918887
C       5.54059443      1.16606274      0.09538956
N       6.64969240      1.17565311      1.05042566
H      -5.92650675      1.47994997      1.49072959
H      -6.95302110      1.04068611      0.30636097
H      -5.69940431     -0.82300243      0.97355718
H      -5.34993616     -0.37786933     -0.70074610
H      -3.68562322      0.45595561      1.73791098
H      -3.27683475      0.86828690      0.08225342
H      -2.09865327     -1.00657244      1.09551683
H      -2.45615268     -2.63830491     -0.71756609
H      -3.51596608     -1.43743913     -1.42680339
H      -1.10570596     -1.33217343     -2.21594614
H      -1.68029687      0.19836401     -1.52878695
H      -0.10031030     -1.82817467     -0.08066703
H       0.62396562      0.84770770     -1.09156054
H       1.20125758     -0.69745344     -1.74706482
H       1.67213746      0.30868958      1.11600866
H       2.24899699     -1.23714699      0.46212947
H       2.97167630      1.43288391     -0.56441133
H       3.97265419      0.94818148      1.57360911
H       4.55392507     -0.58503017      0.89606016
H       5.29497466      2.20301097     -0.16068623
H       5.87579816      0.67609892     -0.82584362
H       6.90676384      0.21556628      1.27789251
H       6.34587647      1.60234080      1.92458170
