19
Cc1ccc(O)c(C(=O)O)c1
C      -2.76314205     -0.70769967      0.30441450
C      -1.43507026     -0.04550899      0.08174234
C      -1.37017377      1.28984817     -0.33443026
C      -0.13656295      1.89832076     -0.57226052
C       1.04156304      1.17435688     -0.40661451
O       2.20513617      1.85130628     -0.66232084
C       0.99800157     -0.16726907     -0.00478950
C       2.26118460     -0.91975951      0.15808371
O       3.37086566     -0.45001158     -0.03328538
O       2.09088733     -2.19516307      0.54358234
C      -0.24525878     -0.77338853      0.23286471
H      -3.11033554     -1.17084046     -0.62425772
H      -3.51107635      0.01883514      0.63897834
H      -2.68985670     -1.47795032      1.07934602
H      -2.28133242      1.86765403     -0.47583577
H      -0.09338621      2.93698432     -0.88984425
H       2.96277583      1.24447669     -0.51577552
H       2.99939595     -2.55742246      0.60813881
H      -0.29361513     -1.81676862      0.53807340
