57
CCC(Cc1ccccc1)(C(=O)c1ccc(N2CCOCC2)cc1)N(C)C
C       4.84891265     -1.66791134     -0.81378588
C       3.53400593     -1.16145531     -1.39205403
C       2.26883112     -1.15789566     -0.45503257
C       2.48936027     -0.18027631      0.76216579
C       2.65606998      1.30249327      0.48337105
C       3.89662878      1.83555934      0.10706200
C       4.04310238      3.20244809     -0.14039992
C       2.95444723      4.05859132     -0.00034169
C       1.72188147      3.54946766      0.39759960
C       1.57578570      2.18298120      0.64502049
C       1.07437061     -0.61400775     -1.33293978
O       1.20346238     -0.40829569     -2.54572287
C      -0.28248702     -0.33255795     -0.75569481
C      -0.79000910     -0.94238933      0.38932763
C      -2.06551137     -0.60546167      0.86538110
C      -2.88266805      0.33326992      0.21440527
N      -4.14364020      0.63901825      0.74818219
C      -5.06280538     -0.52574687      0.81585697
C      -6.31708552     -0.15940652      1.62766968
O      -6.98005201      0.99740790      1.09372991
C      -6.08577745      2.12182746      1.10233191
C      -4.83627497      1.84839462      0.25034907
C      -2.35786309      0.93764062     -0.93380572
C      -1.08506455      0.60482930     -1.41816339
N       1.87282853     -2.54110784     -0.00864893
C       2.54324904     -3.07646072      1.17118632
C       1.82297084     -3.54052675     -1.07741923
H       5.66660066     -1.43100347     -1.50356568
H       4.84417566     -2.75412981     -0.69712272
H       5.09032477     -1.21089528      0.14787175
H       3.33126538     -1.74379536     -2.30087463
H       3.70216501     -0.14522264     -1.76930463
H       3.36816384     -0.49412670      1.33992425
H       1.65839007     -0.28092847      1.47224700
H       4.76816487      1.19473855      0.00468568
H       5.00968420      3.59851089     -0.44094456
H       3.06850100      5.12163926     -0.19380190
H       0.87196504      4.21541449      0.52051720
H       0.60597070      1.81876984      0.97649013
H      -0.22626980     -1.68705781      0.93964175
H      -2.41117242     -1.07718064      1.78266220
H      -4.59375785     -1.39521241      1.28851617
H      -5.35820618     -0.80650241     -0.20330490
H      -6.06227435      0.02971046      2.67722797
H      -7.02976133     -0.98979891      1.60223609
H      -5.81431769      2.35469050      2.13878085
H      -6.63040784      2.98060411      0.69776031
H      -4.17760246      2.72301080      0.30647343
H      -5.14500156      1.69585530     -0.79166114
H      -2.92771401      1.67046411     -1.49676747
H      -0.72015475      1.09565406     -2.31928134
H       2.38120805     -2.44583975      2.05065946
H       2.11970128     -4.05188859      1.43926958
H       3.61734775     -3.21431064      1.03422565
H       1.26100073     -3.18390033     -1.94621427
H       2.81882384     -3.85097289     -1.40865829
H       1.29651921     -4.43672549     -0.72867448
