24
CCCCC(C)(C)O
C       3.51550422     -0.11469454     -0.15375712
C       2.21389072     -0.50196495      0.53006233
C       1.00334671      0.09927921     -0.18694868
C      -0.30540470     -0.30214378      0.50585205
C      -1.57188030      0.33555234     -0.10261306
C      -1.77368165     -0.05031082     -1.56862039
C      -2.80358950     -0.07275454      0.71222232
O      -1.46097874      1.75918843     -0.04631389
H       3.53673057     -0.47215265     -1.18821306
H       4.36688984     -0.55443262      0.37508748
H       3.64563577      0.97218685     -0.16271206
H       2.23927989     -0.15856748      1.57078667
H       2.12959858     -1.59475298      0.55043766
H       1.09824621      1.19121197     -0.20562026
H       0.99846772     -0.24618074     -1.22665413
H      -0.40067806     -1.39541347      0.49239273
H      -0.23196789     -0.00137907      1.55962424
H      -1.80522691     -1.13682356     -1.69867191
H      -2.71025860      0.36948702     -1.95434578
H      -0.98114694      0.35829847     -2.20431571
H      -2.96287679     -1.15568882      0.68665950
H      -3.70512194      0.42099939      0.33168706
H      -2.70148723      0.23783513      1.75837131
H      -1.33329098      2.01322121      0.88368505
