8
ClC(Cl)(Cl)C(Cl)(Cl)Cl
Cl     -1.31381700     -1.56285313      0.90117439
C      -0.77400360     -0.10836298     -0.03823336
Cl     -1.35290115     -0.35191724     -1.73969934
Cl     -1.70132559      1.30322921      0.62275628
C       0.77400352      0.10836322      0.03823332
Cl      1.35290134      0.35191560      1.73969944
Cl      1.70132561     -1.30322859     -0.62275772
Cl      1.31381687      1.56285392     -0.90117301
