45
CCCCCC(C)OC(=O)COc1ccc(Cl)c2cccnc12
C      -7.07228715     -0.73120909     -0.94217451
C      -6.47449802      0.60374653     -0.52651808
C      -5.18224712      0.47106178      0.28191003
C      -4.02724254     -0.13829739     -0.51768796
C      -2.73185867     -0.13804902      0.29704250
C      -1.53164771     -0.71403831     -0.46762492
C      -1.67049068     -2.20837586     -0.74158462
O      -0.35263309     -0.55590509      0.35166007
C       0.35956097      0.59716347      0.17325773
O       0.06612376      1.48533847     -0.61636727
C       1.56783361      0.59167398      1.09842614
O       2.36100812      1.76549277      0.91085801
C       3.53815148      1.49794313      0.24756249
C       3.65710120      2.07665142     -1.01772985
C       4.82100240      1.88624899     -1.74724410
C       5.86128774      1.13452739     -1.19961435
Cl      7.28078177      0.94104679     -2.17597786
C       5.75823780      0.56339589      0.09619546
C       6.78109132     -0.19650452      0.70874433
C       6.61730300     -0.71520400      1.98788338
C       5.42690663     -0.46606140      2.63186279
N       4.41827060      0.24225361      2.08542042
C       4.57180274      0.75536755      0.84029583
H      -6.42946506     -1.25272074     -1.65737677
H      -7.22770198     -1.38090713     -0.07509377
H      -8.04155696     -0.57431162     -1.42449622
H      -7.21143180      1.13968759      0.08301273
H      -6.29534800      1.21531658     -1.41829325
H      -4.89148111      1.46986192      0.63066148
H      -5.37116904     -0.13457497      1.17692991
H      -3.87635494      0.43489670     -1.44143679
H      -4.28424307     -1.16250988     -0.80596389
H      -2.49928756      0.88990386      0.60489365
H      -2.87415474     -0.69729441      1.23056797
H      -1.40361622     -0.20026073     -1.42807588
H      -2.49467614     -2.42218995     -1.42645589
H      -0.74871251     -2.60017972     -1.18664162
H      -1.83051876     -2.76486795      0.18838393
H       1.20338778      0.60742107      2.13002497
H       2.11865377     -0.34003365      0.92651798
H       2.83886634      2.66422328     -1.42565804
H       4.91370158      2.32752652     -2.73616499
H       7.71990167     -0.38568372      0.19439292
H       7.39991443     -1.29266471      2.46578220
H       5.24173414     -0.83694959      3.63589373
