44
O=[N+]([O-])c1ccc(Nc2ccc(Nc3ccccc3)c(S(=O)(=O)[O-])c2)c([N+](=O)[O-])c1.[Na+]
O      -7.98157018     -1.13782417     -0.90134150
N      -7.15829453     -1.18451726      0.02416961
O      -7.38326656     -1.67393383      1.13919648
C      -5.83391838     -0.59755187     -0.21599806
C      -4.84551019     -0.68575928      0.76584582
C      -3.58893598     -0.11048526      0.53698648
C      -3.28257149      0.56273105     -0.66060533
N      -1.99138949      1.08292105     -0.88246651
C      -0.72620569      0.67765821     -0.41849232
C       0.31338534      1.61292638     -0.38005100
C       1.57428429      1.27842008      0.13638043
C       1.84892134     -0.00125942      0.64088017
N       3.12059024     -0.31067730      1.16423848
C       4.42049988      0.05350889      0.76599689
C       4.71550463      0.68952853     -0.44396387
C       6.02548875      1.06556430     -0.76052828
C       7.06110996      0.81601685      0.13656287
C       6.78706204      0.18676856      1.34740987
C       5.47680805     -0.18788545      1.65684869
C       0.79359911     -0.92619172      0.61494399
S       0.92955132     -2.60041287      1.29955063
O       2.21559030     -2.59229427      1.99751243
O      -0.24210101     -2.67286979      2.17001536
O       0.87304730     -3.42610849      0.09785237
C      -0.46768317     -0.59453650      0.08428388
C      -4.30579212      0.63279416     -1.63182857
N      -4.08000079      1.31745162     -2.90695304
O      -3.29257759      2.27666945     -2.92035216
O      -4.71873447      0.91877371     -3.89157772
C      -5.57530493      0.06123240     -1.42167260
Na      0.00000000      0.00000000      0.00000000
H      -5.02062099     -1.19798710      1.71109743
H      -2.84388022     -0.18603443      1.33056574
H      -1.94194820      1.82965771     -1.57749164
H       0.14994701      2.62829632     -0.73109452
H       2.33775259      2.05048362      0.18227642
H       3.10584680     -1.23094154      1.64481398
H       3.93317728      0.86390559     -1.17599548
H       6.23192316      1.54358207     -1.71362205
H       8.07850659      1.10378902     -0.11043202
H       7.58621657     -0.01755546      2.05359864
H       5.27098052     -0.67663649      2.60718951
H      -1.22523533     -1.37411486      0.06725409
H      -6.34425179      0.13289780     -2.18938154
