27
CC(C)c1cccc2ccccc12
C      -2.96487681     -0.32071686      0.97433498
C      -1.85201368     -0.38550166     -0.08184748
C      -2.33811499      0.23139388     -1.39578814
C      -0.53031133      0.25576221      0.34520516
C      -0.55163208      1.40560871      1.15891347
C       0.62542992      2.01970554      1.57369150
C       1.85265729      1.50508818      1.17501204
C       1.92299823      0.37926019      0.34547808
C       3.17990131     -0.10589562     -0.05391934
C       3.29123665     -1.21349010     -0.89018768
C       2.14383107     -1.84793142     -1.34085966
C       0.88658918     -1.37777871     -0.94931604
C       0.73206624     -0.26034337     -0.09188487
H      -3.81575687     -0.93885896      0.66607399
H      -2.61296353     -0.69661271      1.94124449
H      -3.34348755      0.69657612      1.11807016
H      -1.68838004     -1.45700112     -0.23934343
H      -3.25749717     -0.25656585     -1.73689160
H      -1.59005516      0.12255837     -2.18854054
H      -2.54667272      1.30131280     -1.28232722
H      -1.49159301      1.84609092      1.48053135
H       0.58516449      2.90201037      2.20682259
H       2.76064691      2.00037102      1.51195469
H       4.09077577      0.38349995      0.28481529
H       4.27092467     -1.57422790     -1.19067587
H       2.21941859     -2.70906030     -1.99952410
H       0.02171464     -1.90525370     -1.34104180
