38
O=C(O)CCCCCCCCCCC(=O)O
O      -4.78438509      2.30568273     -1.41791866
C      -4.46182826      2.04490688     -0.27126554
O      -3.92139686      2.98702566      0.52350194
C      -4.61090490      0.71543429      0.41247633
C      -3.26742762      0.05257441      0.70140298
C      -2.54884287     -0.39394850     -0.57525283
C      -1.22862143     -1.09781029     -0.25131623
C      -0.50810158     -1.53780708     -1.52733691
C       0.76474733     -2.34752347     -1.26121299
C       1.84870802     -1.63599783     -0.44433656
C       2.34624660     -0.34291327     -1.09475334
C       3.56416672      0.25883584     -0.38756661
C       3.26545170      0.73168483      1.03458139
C       4.44677544      1.43858985      1.64327039
O       5.55737617      1.58240440      1.16300313
O       4.16001288      1.93241049      2.86432475
H      -3.89140117      3.78648576     -0.04288006
H      -5.23478458      0.06964736     -0.21592074
H      -5.16555309      0.87654336      1.34409497
H      -2.62180931      0.73623116      1.26574782
H      -3.44170627     -0.82241986      1.33938371
H      -3.19714033     -1.07258421     -1.14275863
H      -2.34900327      0.47383140     -1.21485984
H      -1.42374959     -1.97231657      0.38091219
H      -0.59229630     -0.41525566      0.32311324
H      -1.18597462     -2.16041328     -2.12492154
H      -0.27418930     -0.66189526     -2.14333470
H       1.18991332     -2.65047670     -2.22626175
H       0.49281590     -3.27468585     -0.74130473
H       2.69316956     -2.32677917     -0.32773148
H       1.47366070     -1.43480657      0.56462114
H       1.54308452      0.40236021     -1.11860822
H       2.62142884     -0.54813828     -2.13658201
H       4.38265869     -0.47171589     -0.37240545
H       3.92226478      1.10835392     -0.98320407
H       2.42011453      1.42852330      1.02212364
H       3.01990362     -0.11992547      1.67695573
H       4.99661712      2.35588737      3.15010810
