17
COc1ncnc2nc[nH]c12
C       2.89883510     -0.00459784     -0.14604757
O       1.66943676     -0.72206266     -0.08762093
C       0.57199005      0.10891111     -0.02828199
N       0.70095543      1.45014527     -0.02823112
C      -0.42871993      2.18718895      0.03227291
N      -1.69756755      1.75894245      0.09409893
C      -1.79195616      0.41741389      0.09230495
N      -2.95385479     -0.30546111      0.14730552
C      -2.57328811     -1.56464757      0.12198848
N      -1.21164561     -1.68199113      0.05282447
C      -0.69524074     -0.41866302      0.03297796
H       3.71025197     -0.73750374     -0.19049912
H       3.04701664      0.60242177      0.75387670
H       2.95613145      0.61122949     -1.05035295
H      -0.29206466      3.26468989      0.03064924
H      -3.22975418     -2.42468838      0.15085905
H      -0.68052565     -2.54132736      0.02187547
