15
Cc1ccc(Cl)cc1Cl
C      -2.23024461     -0.18515213      0.25138243
C      -0.74104957     -0.06938401      0.08180319
C       0.00480088     -1.20698509     -0.26539325
C       1.38940606     -1.12684098     -0.42909434
C       2.03889152      0.09130002     -0.24691763
Cl      3.74495614      0.18662241     -0.44937762
C       1.31887614      1.23124357      0.09741070
C      -0.06594144      1.14992304      0.26088201
Cl     -0.91298233      2.59419675      0.68860128
H      -2.57565117     -1.20901173      0.07200958
H      -2.52038703      0.08422650      1.27198958
H      -2.74739884      0.46457664     -0.46191252
H      -0.48831396     -2.16637923     -0.41128502
H       1.95289695     -2.01681401     -0.69809523
H       1.83214126      2.17847823      0.23799684
