40
CCN(CC)C(=O)COC(=O)c1ccccc1OC(C)=O
C      -3.64074397      2.74629013     -0.65066269
C      -3.98400357      1.27176471     -0.79386710
N      -3.11098864      0.43136786      0.02622987
C      -3.56321538      0.12749050      1.38488862
C      -4.44985930     -1.10744821      1.42077903
C      -1.91110132     -0.01142115     -0.53316946
O      -1.59375597      0.27031825     -1.69244829
C      -1.00494219     -0.89396415      0.33753246
O       0.20154628     -1.25834829     -0.33689149
C       1.16257681     -0.29897225     -0.31818612
O       1.10721144      0.75187179      0.30122714
C       2.32528083     -0.73729057     -1.13289009
C       2.15206570     -1.63375393     -2.19931268
C       3.24239662     -2.02006095     -2.98495060
C       4.51312569     -1.50903959     -2.72140512
C       4.69960458     -0.61194975     -1.67091242
C       3.61121082     -0.24092784     -0.87541639
O       3.87094447      0.69010704      0.13683545
C       3.83906820      0.14459909      1.41483492
C       4.03359945      1.24325544      2.41620198
O       3.69352380     -1.03672749      1.70192495
H      -3.74755441      3.07700114      0.38747380
H      -2.60855344      2.94303680     -0.95836803
H      -4.30510161      3.35345243     -1.27308454
H      -5.02556348      1.09355032     -0.50499656
H      -3.89029357      0.98066249     -1.84608699
H      -4.10771681      0.99510230      1.77415085
H      -2.70630717     -0.02546580      2.04456620
H      -3.92130251     -1.98711988      1.04063533
H      -5.34613172     -0.96865954      0.80772186
H      -4.76848615     -1.31622772      2.44666172
H      -1.53798511     -1.82433744      0.55486663
H      -0.77276157     -0.40066920      1.28653755
H       1.16577531     -2.02592892     -2.43883751
H       3.09590726     -2.71400182     -3.80954328
H       5.35724026     -1.80634568     -3.33893719
H       5.68765624     -0.20692060     -1.47123117
H       5.01947744      1.69533872      2.28309420
H       3.24659128      1.99296488      2.30198167
H       3.97156543      0.82740690      3.42589899
