18
NNc1ccc(Cl)cc1.[Cl-].[H+]
N       2.82841020      0.40731873     -0.06975267
N       1.85580141     -0.58743743     -0.13514234
C       0.46698798     -0.31683782     -0.08361469
C       0.01181685      0.98645397      0.03592249
C      -1.34983417      1.27180608      0.08827736
C      -2.29060652      0.27037806      0.02319038
Cl     -4.00750066      0.65656529      0.09145463
C      -1.84573961     -1.02388908     -0.09537840
C      -0.49600396     -1.29689455     -0.14643885
Cl      0.00000000      0.00000000      0.00000000
H       0.00000000      0.00000000      0.00000000
H       3.77963781      0.05262784      0.04592806
H       2.57307929      1.17708857      0.58574428
H       2.18085364     -1.56924351     -0.22590384
H       0.69650570      1.79844006      0.09018415
H      -1.70837697      2.30239525      0.18276249
H      -2.57455568     -1.80504934     -0.14626632
H      -0.12047530     -2.32372213     -0.24096675
