46
CC#Cc1ccnc(-c2cc(C3(C4CC4)N=C(C)C(N)=N3)ccc2O)c1
C       5.82652920      2.71288049      3.13790693
C       5.28230767      1.61606426      2.33806263
C       4.83440685      0.71701678      1.67944967
C       4.29963163     -0.35185881      0.89357928
C       5.06202230     -1.48606180      0.65264623
C       4.50299725     -2.48166102     -0.12197141
N       3.26054178     -2.41465078     -0.65343058
C       2.50764841     -1.30553669     -0.39730334
C       1.15210041     -1.30069006     -1.00526811
C       0.10716288     -0.51585543     -0.46987899
C      -1.18635238     -0.47324773     -1.03670518
C      -2.28421150      0.41304891     -0.43600184
C      -2.18524732      1.79205643     -1.06283813
C      -2.86870413      2.14302929     -2.36651617
C      -3.34649809      2.76402099     -1.08266419
N      -3.63438296     -0.17656723     -0.65993610
C      -4.09492708     -0.32333547      0.53521944
C      -5.42078243     -0.88582857      0.89376305
C      -3.14594269      0.15968388      1.57325260
N      -3.37451754      0.12048371      2.91508288
N      -2.07482996      0.62282677      1.02832241
C      -1.42859566     -1.23392544     -2.18896886
C      -0.42787317     -2.03395932     -2.73375823
C       0.83334897     -2.07146886     -2.14155100
O       1.74285986     -2.90733866     -2.74092624
C       3.01274105     -0.25389735      0.36523965
H       6.02687121      3.58819429      2.51272945
H       6.76414228      2.41655545      3.61772231
H       5.12291197      3.00927944      3.92163103
H       6.06504394     -1.59254429      1.05026732
H       5.05511968     -3.39026917     -0.34671695
H       0.28233159      0.07924654      0.42456079
H      -1.20438375      2.22705034     -0.89139639
H      -2.32473042      2.76639015     -3.06624657
H      -3.50318507      1.40044667     -2.83693424
H      -4.30710587      2.44576964     -0.69685330
H      -3.12653286      3.81100680     -0.91000788
H      -5.28696375     -1.77814920      1.51068912
H      -5.97077478     -1.15857358     -0.01089446
H      -5.99751899     -0.14238976      1.45009187
H      -3.92446051     -0.65479149      3.26524830
H      -2.52869968      0.27908435      3.45455736
H      -2.40704158     -1.21160258     -2.66448093
H      -0.62833089     -2.63262211     -3.61773800
H       2.51043340     -2.95253698     -2.12888068
H       2.43144070      0.64522719      0.54001368
