23
CN(C)C(=S)SC(=S)N(C)C
C      -3.33410485      0.48879434     -0.74335504
N      -2.35030910      0.10620572      0.26861857
C      -2.66304721      0.59168649      1.61296419
C      -1.19650887     -0.62762869     -0.05132270
S      -0.97196323     -1.48537198     -1.48754987
S       0.06160156     -0.69149784      1.19292340
C       1.21585022      0.41051038      0.42587893
S       0.91975440      2.07143028      0.47652124
N       2.35691949     -0.18041321     -0.14060155
C       2.75041727     -1.57243210      0.07895380
C       3.24161275      0.54945193     -1.04775809
H      -3.60997796      1.53735981     -0.59058543
H      -2.95861490      0.39042153     -1.76302557
H      -4.22051106     -0.14036216     -0.61917803
H      -2.32664451      1.62878842      1.69707224
H      -3.74653792      0.55150636      1.76614093
H      -2.20040078     -0.01374662      2.39418596
H       2.37546009     -2.17678927     -0.75169712
H       3.84320575     -1.63662305      0.10582679
H       2.37696433     -1.96817646      1.02490170
H       2.79335002      1.46470943     -1.43732489
H       3.48128086     -0.09269313     -1.90165659
H       4.16220363      0.79486984     -0.50993284
