25
CN(C)C(C)(C)CO.[Cl-].[H+]
C      -1.43863818      0.16351326     -1.44742770
N      -1.02495802      0.27102256     -0.09226440
C      -1.91554591     -0.42197207      0.78627350
C       0.34490441      0.17357871      0.18368639
C       0.69538486      1.01844822      1.40123314
C       1.09787990      0.84786171     -0.97835721
C       0.91378381     -1.21017727      0.27565156
O       2.24525539     -1.09854754      0.69030534
Cl      0.00000000      0.00000000      0.00000000
H       0.00000000      0.00000000      0.00000000
H      -1.30738066      1.07231311     -2.05301982
H      -2.55024114     -0.02704371     -1.43504974
H      -0.93072552     -0.69515344     -1.92838537
H      -2.84428725     -0.67103729      0.21073757
H      -2.24485746      0.17550412      1.66694739
H      -1.54200345     -1.37646783      1.17088205
H       0.88335157      2.07624441      1.09331731
H      -0.14348512      1.07100260      2.12358692
H       1.64519584      0.66859489      1.84307722
H       0.70852667      0.52473943     -1.95583774
H       2.15473144      0.49613943     -0.92624054
H       1.13670457      1.94396486     -0.85158622
H       0.86028671     -1.65160586     -0.76057118
H       0.41848735     -1.87352164      0.98200375
H       2.83763018     -1.47740065      0.00103777
