40
CC1=NC(c2cccc(-c3cncc(Cl)c3)c2)(C2CC2)N=C1N
C      -3.62559863     -1.07469889      2.12267048
C      -2.88621513     -0.73345620      0.88178810
N      -1.88203783      0.07103478      0.79743296
C      -1.53807128      0.03598918     -0.65279100
C      -0.08865133     -0.41554164     -0.86263342
C       0.29177205     -1.13963087     -2.00292442
C       1.61804412     -1.52372011     -2.19556872
C       2.58967902     -1.18305058     -1.25367881
C       2.25584538     -0.44978347     -0.10471550
C       3.27838744     -0.08017684      0.88507920
C       4.16008940     -1.02302626      1.42198704
N       5.12789443     -0.75145851      2.33327270
C       5.22381287      0.53520333      2.74077947
C       4.40197204      1.55036733      2.27901209
Cl      4.58896145      3.16046428      2.84434803
C       3.42064191      1.23824185      1.34223717
C       0.91163724     -0.07310094      0.06892862
C      -1.70802775      1.40756378     -1.28133714
C      -2.82329937      2.35295919     -0.88641715
C      -1.39944486      2.68893215     -0.53724053
N      -2.50122728     -0.85419354     -1.36635052
C      -3.26910246     -1.30548086     -0.43640345
N      -4.28934024     -2.18466746     -0.63655225
H      -4.67730299     -0.79809437      2.01209016
H      -3.55012184     -2.14856270      2.31203688
H      -3.20291663     -0.53333408      2.97328924
H      -0.45029990     -1.40410635     -2.75391701
H       1.89579877     -2.08227154     -3.08568777
H       3.61994754     -1.48144322     -1.43769529
H       4.10495184     -2.06966965      1.12988889
H       6.00439485      0.72884698      3.47058841
H       2.77238809      2.02262559      0.95877667
H       0.62479795      0.49370562      0.95470081
H      -1.45952984      1.38195087     -2.33906381
H      -3.48814749      2.07547850     -0.07781540
H      -3.30231004      2.91959210     -1.67636142
H      -0.91189582      3.48433388     -1.08835089
H      -1.10784190      2.62894978      0.50503590
H      -4.24556981     -2.62369931     -1.55147593
H      -4.48406397     -2.84307182      0.10802738
