26
CC/C(C)=C/CCC(C)=O
C      -3.95230610      0.18240623     -0.58949166
C      -2.81619452     -0.72929663     -0.14694132
C      -1.50918198      0.01580617      0.04001269
C      -1.45789164      0.93665981      1.23036770
C      -0.48103054     -0.18994483     -0.80751592
C       0.86655703      0.47997257     -0.79040431
C       1.92950881     -0.43825197     -0.19650458
C       3.30217704      0.20629779     -0.18798858
C       4.41174239     -0.60428560      0.43019217
O       3.51951392      1.32152958     -0.65924729
H      -4.17979973      0.93814924      0.16909751
H      -3.70503131      0.69769535     -1.52364053
H      -4.86123691     -0.40441468     -0.75735576
H      -3.08735442     -1.22832107      0.79124828
H      -2.70221300     -1.52742298     -0.89112446
H      -1.85360095      0.43043972      2.11749692
H      -0.44320688      1.25557416      1.48173977
H      -2.05888555      1.83245972      1.04653821
H      -0.61668766     -0.89514907     -1.62780549
H       1.13148953      0.74002852     -1.82329913
H       0.83750709      1.43223483     -0.25010070
H       1.99762313     -1.36650070     -0.77558131
H       1.67139611     -0.69242168      0.83817475
H       4.17654151     -0.80846070      1.47762108
H       5.34948264     -0.04380065      0.38174731
H       4.53108200     -1.54098313     -0.11975586
