27
O=C1CN(/N=C/c2ccc([N+](=O)[O-])o2)C(=O)N1CO
O      -4.44513501     -2.09307009      0.08611483
C      -3.41403070     -1.43663812      0.14261583
C      -2.02651638     -2.03572825      0.23694000
N      -1.21448935     -0.84568986      0.18738951
N       0.14029407     -0.96311896      0.03159489
C       0.88211049      0.08710383      0.19014568
C       2.30386365     -0.00533970     -0.00637419
C       3.12419572     -1.05402385     -0.38838798
C       4.45113349     -0.55396899     -0.41437142
C       4.34792385      0.76558433     -0.04492134
N       5.33295439      1.78863253      0.11319078
O       4.95071170      2.90926910      0.47201516
O       6.50373725      1.46182576     -0.12431498
O       3.05845670      1.11779734      0.20662787
C      -2.00460121      0.29989635      0.00074320
O      -1.62840625      1.44084098     -0.23164316
N      -3.31344497     -0.07832931      0.09532545
C      -4.41389854      0.80472370     -0.14454513
O      -4.36843670      1.85962585      0.79919793
H      -1.81994905     -2.66936708     -0.62860572
H      -1.87918429     -2.55097334      1.18794038
H       0.50118469      1.07234321      0.50279746
H       2.79204064     -2.05806949     -0.61977285
H       5.35950517     -1.08382925     -0.66784039
H      -4.33225841      1.22543871     -1.15197302
H      -5.36870016      0.28079708     -0.04752481
H      -3.51906078      2.31426752      0.64244771
