21
CCC(=O)[O-].CCC(=O)[O-].[Ca+2]
C       0.86711464      0.70318774      0.38364846
C       0.00964772     -0.53441265      0.20341082
C      -1.18501665     -0.37234970     -0.74048695
O      -1.88318009     -1.41915340     -0.87286471
O      -1.33756166      0.76227191     -1.27011592
C      -1.16753187      0.10446202      0.13965769
C       0.19994736     -0.53580480      0.00019806
C       1.36441192      0.44016125     -0.18938721
O       1.07565835      1.66788490     -0.21081238
O       2.49320092     -0.11990508     -0.30303247
Ca      0.00000000      0.00000000      0.00000000
H       0.28161065      1.53183817      0.79517922
H       1.29271956      1.03021223     -0.57068314
H       1.69344376      0.49698534      1.07108613
H       0.63471110     -1.34938110     -0.18055323
H      -0.37348903     -0.84919855      1.18137931
H      -1.93601487     -0.66378833      0.27055913
H      -1.42098285      0.69035831     -0.74990512
H      -1.20354346      0.77215539      1.00667712
H       0.40583261     -1.13698430      0.89378673
H       0.18902187     -1.21853937     -0.85774155
