39
CC(CN/C=C1/C=CC=CC1=O)N/C=C1/C=CC=CC1=O
C       1.66417695      3.46584090      1.61345859
C       1.05482674      2.30301843      0.83202210
C      -0.44613953      2.14133882      1.19061378
N      -1.09243155      1.16892736      0.32305433
C      -2.24571378      1.31825756     -0.40173104
C      -2.79719955      0.47273699     -1.29121150
C      -4.04619442      0.79638667     -1.96481645
C      -4.62597956     -0.07010753     -2.80681696
C      -4.04649865     -1.36681532     -3.06674414
C      -2.87664785     -1.74328475     -2.53274473
C      -2.12143119     -0.83371074     -1.62769153
O      -1.01511995     -1.17207724     -1.21748463
N       1.81685991      1.09243782      1.14950523
C       2.00027343      0.01810214      0.30395643
C       2.33488276     -1.24766289      0.61271574
C       2.47695252     -2.26576176     -0.41461381
C       2.83523545     -3.51995855     -0.10586395
C       3.09833459     -3.91196709      1.25698882
C       2.95662692     -3.05952668      2.28248738
C       2.54432880     -1.64808391      2.05051398
O       2.39767690     -0.89030313      3.00749135
H       1.57968015      3.30797909      2.69504936
H       2.72681772      3.57755568      1.37731790
H       1.16164463      4.40747822      1.36456269
H       1.14889646      2.52499303     -0.23949893
H      -0.54995081      1.80549619      2.22945178
H      -0.94963761      3.11143248      1.10797731
H      -0.57490507      0.29656237      0.16471605
H      -2.74508535      2.25985340     -0.17868592
H      -4.50660172      1.76204047     -1.77579448
H      -5.55638935      0.18314811     -3.30844003
H      -4.59351685     -2.03884101     -3.72109299
H      -2.42695300     -2.70789009     -2.73214326
H       1.83901705      0.82418246      2.14116001
H       1.82637196      0.28696637     -0.73674127
H       2.27269464     -1.99208269     -1.44487297
H       2.93227940     -4.27398691     -0.88134572
H       3.40908770     -4.93782930      1.43463948
H       3.13973111     -3.34539148      3.31065199
