36
NCC(=O)Nc1ccc(S(=O)(=O)Nc2nnc(S(N)(=O)=O)s2)cc1
N      -6.48885315      0.26542381     -1.27774029
C      -6.17207889     -1.10252908     -1.75265578
C      -4.86865950     -1.61825589     -1.12425900
O      -4.62646338     -2.81906618     -1.06330583
N      -4.04924810     -0.58152606     -0.71664125
C      -2.79277344     -0.64910640     -0.09615430
C      -2.17598596     -1.84693377      0.27764229
C      -0.92487686     -1.83663772      0.90389182
C      -0.28247570     -0.62046457      1.14411526
S       1.30263525     -0.61001563      1.94589230
O       1.56925043      0.74372280      2.38040124
O       1.33731350     -1.72613585      2.86575679
N       2.30811056     -1.03229585      0.65085686
C       3.49014055     -0.19045685      0.60867474
N       4.62676712     -0.61535221      1.11077128
N       5.64168006      0.30638431      0.92167454
C       5.20398804      1.35601227      0.25438454
S       6.18663374      2.73832228     -0.21392928
N       7.67217157      2.60924734      0.57963959
O       5.53242257      3.90414084      0.33674789
O       6.43902081      2.57141740     -1.62671932
S       3.56647562      1.30556308     -0.21460524
C      -0.89065563      0.58403940      0.78763430
C      -2.14436159      0.56435371      0.16924585
H      -6.80300907      0.18410547     -0.30606170
H      -7.31292416      0.58592028     -1.79008356
H      -6.98963470     -1.77878993     -1.48588509
H      -6.04403216     -1.09073471     -2.83945324
H      -4.46133988      0.33534353     -0.87809641
H      -2.65344770     -2.80857275      0.10639574
H      -0.47082896     -2.77964094      1.20177001
H       2.60592325     -1.99509798      0.82521829
H       8.07879156      1.67755791      0.48229157
H       7.60031089      2.92071425      1.54694833
H      -0.40683985      1.53809268      0.98623972
H      -2.60314683      1.51125102     -0.11173047
