12
O=C(O)/C=C/C(=O)O
O      -2.27651816     -0.11719655     -1.05272494
C      -1.87690707     -0.13608644      0.09494762
O      -2.70513008     -0.23998914      1.14445483
C      -0.48911052     -0.05443252      0.55182428
C       0.48911061      0.05443168     -0.35572739
C       1.87690709      0.13608571      0.10114878
O       2.27651867      0.11719350      1.24882089
O       2.70512975      0.23999223     -0.94835858
H      -3.59738362     -0.28795430      0.74211466
H      -0.30346750     -0.08549383      1.61907288
H       0.30346750      0.08549303     -1.42297593
H       3.59738334      0.28795663     -0.54601830
