43
CCN(OC(=O)c1ccccc1)C(=O)c1c(OC)ccc(Cl)c1OC
C      -0.13606904      3.77460795     -1.26663307
C      -0.06528587      3.39907694      0.20707644
N      -0.33939071      1.99289927      0.45283217
O       0.69283620      1.16691577     -0.06857580
C       1.50452668      0.64743257      0.89511803
O       1.50213680      0.92789776      2.08406753
C       2.42320768     -0.35457625      0.28971239
C       2.29514749     -0.79164607     -1.03712822
C       3.17336827     -1.75106869     -1.54649719
C       4.18014644     -2.27763898     -0.73809675
C       4.31202070     -1.84979251      0.58218516
C       3.43533666     -0.89270152      1.09659764
C      -1.62207159      1.48737624      0.28086815
O      -2.64377209      2.16853760      0.23266358
C      -1.74672512      0.01996523      0.17508356
C      -1.76582630     -0.75576873      1.34478500
O      -1.75497018     -0.09310607      2.54179916
C      -1.09530749     -0.75744970      3.61481173
C      -1.83133728     -2.14692281      1.23620214
C      -1.83634022     -2.75385060     -0.02358233
C      -1.79756439     -1.97541604     -1.18295743
Cl     -1.73850330     -2.78520316     -2.70649448
C      -1.78248719     -0.58036905     -1.09154941
O      -1.68108240      0.19131447     -2.22285001
C      -2.98118994      0.53407899     -2.71130567
H       0.59296759      3.20702012     -1.85405893
H       0.07762566      4.84005498     -1.39594750
H      -1.12815700      3.57339744     -1.68316325
H      -0.79808534      3.99115805      0.76638759
H       0.92935376      3.62582238      0.60570317
H       1.51593722     -0.40325122     -1.68938213
H       3.07017999     -2.08877684     -2.57533774
H       4.86281819     -3.02384754     -1.13805366
H       5.09688354     -2.26175844      1.21202178
H       3.54525025     -0.56789989      2.12984620
H      -0.88902857     -0.01481790      4.39141111
H      -1.74513440     -1.52382440      4.04848913
H      -0.13877959     -1.18938545      3.30057899
H      -1.88318304     -2.78024151      2.11700398
H      -1.86576244     -3.83909662     -0.09300959
H      -2.85079696      1.24299052     -3.53431323
H      -3.49808540     -0.34797554     -3.10277267
H      -3.59480725      1.01583927     -1.94353556
