30
O=C(O)C1=CC(=NNc2ccccc2[N+](=O)[O-])C=CC1=O
O       4.71259726     -1.96792581      1.46033970
C       4.82365187     -0.76799569      1.25465907
O       6.00266935     -0.12624263      1.39599133
C       3.69168921      0.09051706      0.83540301
C       2.49604790     -0.49412791      0.67209718
C       1.28516265      0.25121937      0.24896084
N       0.18625092     -0.42647822      0.10669262
N      -0.91764029      0.24334759     -0.32444316
C      -2.14480179     -0.47579606     -0.37307825
C      -2.31566410     -1.64130505      0.39630195
C      -3.53559684     -2.32599187      0.43245059
C      -4.62970905     -1.84832880     -0.28218332
C      -4.50886784     -0.67860730     -1.02855131
C      -3.27902362      0.00573233     -1.06336118
N      -3.20863902      1.23927368     -1.85211618
O      -2.09198973      1.61331831     -2.24952718
O      -4.26817418      1.83903314     -2.08378712
C       1.45927533      1.71396662      0.04185868
C       2.64605252      2.30499542      0.20237930
C       3.83956728      1.53792652      0.59697025
O       4.92736543      2.09248886      0.72832211
H       5.97725807      0.84241647      1.20290768
H       2.35008647     -1.55910161      0.83716940
H      -0.80266421      0.82001037     -1.16958939
H      -1.48472071     -2.03065520      0.98216630
H      -3.62660720     -3.23105506      1.02920835
H      -5.57700828     -2.38168851     -0.24917229
H      -5.37569193     -0.30936188     -1.57350777
H       0.58965153      2.29959819     -0.23100495
H       2.77947299      3.37081765      0.05644373
