30
CCSCc1ccccc1OC(=O)NC
C       1.54914676      2.47379251     -0.08374894
C       2.27841287      1.17446913     -0.37406493
S       2.85078133      0.36482067      1.15579172
C       1.28334176     -0.34606121      1.76429568
C       0.72107106     -1.43906590      0.89084283
C       1.46788956     -2.60524671      0.64908592
C       0.95395811     -3.63913809     -0.13884303
C      -0.32207677     -3.53393205     -0.68844271
C      -1.08702237     -2.39496554     -0.45089821
C      -0.55810716     -1.35578779      0.32137422
O      -1.37515924     -0.25246632      0.60732803
C      -1.57531784      0.61401958     -0.45567970
O      -1.08272706      0.51913305     -1.57094065
N      -2.41876529      1.61614720     -0.06260326
C      -2.90311090      2.60780593     -0.98334811
H       0.64908142      2.31808310      0.51704796
H       2.19562357      3.18441020      0.44235166
H       1.23994515      2.94331198     -1.02357616
H       1.65709579      0.49257313     -0.96001357
H       3.16587905      1.39265381     -0.97728449
H       1.47819748     -0.77121099      2.75600322
H       0.56949487      0.46634049      1.92534723
H       2.46439465     -2.71440669      1.07428695
H       1.55222424     -4.52854831     -0.32098867
H      -0.72058482     -4.34009918     -1.29849922
H      -2.08583606     -2.31680252     -0.86994639
H      -2.85295278      1.50764758      0.84327827
H      -3.74152302      2.18452654     -1.54262582
H      -3.24043810      3.47654841     -0.41353772
H      -2.11291623      2.90144799     -1.67955751
