10
[Na+].[O-]CCS
Na      0.00000000      0.00000000      0.00000000
O      -0.71371076     -1.45621469      0.55480169
C      -0.32390189     -0.73989098     -0.49366043
C      -0.08400154      0.72711260     -0.03964088
S       1.36286196      0.90247806      1.06303619
H      -1.03306541     -0.64961911     -1.33282594
H       0.59068441     -1.04245096     -1.02912254
H      -0.96367505      1.13537871      0.47337618
H       0.09892026      1.35652480     -0.91778307
H       1.06588801     -0.23331843      1.72181880
