26
CC(C)C(N)C(=O)NCC(=O)O
C      -1.35372361      1.00074820     -1.08066037
C      -1.95694497      0.06109117     -0.03246659
C      -2.34688732      0.85842601      1.21602566
C      -1.05557195     -1.14568015      0.31356927
N      -0.89036141     -2.02328194     -0.87939587
C       0.33769383     -0.73082736      0.85468247
O       0.50643235     -0.26299402      1.97647875
N       1.36465634     -0.92919395     -0.04221017
C       2.70238235     -0.42538264      0.19920535
C       2.88322187      0.95798397     -0.40239815
O       2.22694814      1.46017179     -1.30196774
O       3.94039363      1.61655499      0.11640140
H      -1.08710609      0.46495854     -1.99681827
H      -0.45781610      1.50158584     -0.70160475
H      -2.07410013      1.77948489     -1.35465554
H      -2.89225317     -0.33547180     -0.45217172
H      -2.76797435      0.20135546      1.98403534
H      -1.49147700      1.38771105      1.64687310
H      -3.10631125      1.60844043      0.96883076
H      -1.53096025     -1.75186502      1.09464168
H      -1.81601375     -2.31087204     -1.19833136
H      -0.42522615     -2.88015516     -0.57314212
H       1.05612119     -1.08943043     -0.99981085
H       2.89198312     -0.38224653      1.27573291
H       3.40849833     -1.10913237     -0.27945790
H       3.93439634      2.47802105     -0.35138530
