46
O=C(c1cc2cccnn2c1-c1cccc(C(F)(F)F)c1)N1CCC[C@H]1CO
O       1.51795314      0.09389675      1.55923480
C       1.29839096      0.24786706      0.35974510
C       0.27878169      1.18048868     -0.11053527
C       0.44527075      2.24872617     -1.03883235
C      -0.76442084      2.89121355     -1.15870129
C      -1.20250418      4.00049386     -1.91796526
C      -2.47704498      4.39253995     -1.82015746
C      -3.34527220      3.61857754     -0.90689044
N      -2.99281773      2.60386783     -0.18656040
N      -1.67565048      2.26234860     -0.32804414
C      -1.04655636      1.21368145      0.32676007
C      -1.73683351      0.32240098      1.26736443
C      -2.41307380      0.83483940      2.38018952
C      -3.05308960     -0.01958045      3.27954155
C      -3.01880298     -1.39881561      3.07786744
C      -2.33958277     -1.93774043      1.97585549
C      -2.31673850     -3.42585615      1.74225721
F      -1.24141175     -3.84252928      1.01466927
F      -3.41390186     -3.85912764      1.06041688
F      -2.28625836     -4.15049080      2.89587003
C      -1.70973030     -1.06554369      1.07195588
N       2.01622173     -0.44162122     -0.60579242
C       1.62734130     -0.57483546     -2.00514669
C       2.24806906     -1.88941535     -2.45202331
C       3.50901884     -1.96633477     -1.60619084
C       3.04648252     -1.42955669     -0.24693888
C       4.22745153     -0.85909909      0.55597522
O       3.95424850     -0.82300027      1.95330962
H       1.36168128      2.52193488     -1.54619506
H      -0.50609564      4.52132678     -2.56713422
H      -2.89339877      5.22913343     -2.36298405
H      -4.39116605      3.96439411     -0.85541602
H      -2.44370077      1.90808806      2.55501309
H      -3.57551941      0.39389263      4.13848365
H      -3.52120054     -2.05458041      3.78727268
H      -1.19285169     -1.47873279      0.20728196
H       0.54094984     -0.57412144     -2.13050101
H       2.06206588      0.26658529     -2.55489474
H       2.44922555     -1.91699183     -3.52630152
H       1.58223003     -2.72474816     -2.20374843
H       4.28273704     -1.32116485     -2.04130816
H       3.90930954     -2.98215315     -1.53815340
H       2.54199293     -2.21841948      0.32594064
H       4.48408202      0.15362598      0.22768524
H       5.11196945     -1.49223264      0.43228968
H       3.06214951     -0.42323130      2.06311341
