41
CC(C)=CCCC(C)CCCC(C)C=O
C      -4.81775179      0.62506628      1.11177706
C      -4.86015854      0.07662831     -0.28777937
C      -6.12452769     -0.67188919     -0.62100232
C      -3.87735063      0.20393042     -1.20066938
C      -2.57271360      0.93913591     -1.05282269
C      -1.40823054     -0.03885299     -0.86799058
C      -0.05557034      0.65201569     -0.58325550
C       0.39707931      1.51364350     -1.76596392
C       0.99350077     -0.42534480     -0.22875832
C       2.33015030      0.14844766      0.25409036
C       3.27081922     -0.96643268      0.72971577
C       4.60501102     -0.42092046      1.25478154
C       5.42477188     -1.52714728      1.91195702
C       5.41904851      0.16035607      0.11925989
O       5.78150872      1.33224282      0.08232347
H      -3.84769394      1.04676196      1.38401743
H      -5.57250741      1.40900299      1.23165486
H      -5.03038308     -0.17089588      1.83371604
H      -6.24638057     -1.52880319      0.04960563
H      -6.99350143     -0.01518296     -0.50897453
H      -6.12532896     -1.05113513     -1.64834049
H      -4.01764956     -0.25434146     -2.17994538
H      -2.60101510      1.65313290     -0.22441266
H      -2.42933409      1.53510571     -1.96119473
H      -1.31658741     -0.67548344     -1.75807910
H      -1.64408261     -0.70820007     -0.02960889
H      -0.18230566      1.30659302      0.28890125
H       1.33732248      2.02900644     -1.54940216
H      -0.33482290      2.29320278     -1.99665165
H       0.54143403      0.90556237     -2.66520641
H       1.16773035     -1.07265731     -1.09779902
H       0.58595328     -1.06670908      0.56342308
H       2.15211378      0.85179222      1.07623892
H       2.81071117      0.70570536     -0.55633651
H       3.44793440     -1.66689849     -0.09658439
H       2.77370387     -1.53191598      1.52798662
H       4.42321470      0.37135013      1.99062105
H       5.63462337     -2.34130294      1.20913177
H       6.38774037     -1.14080270      2.26382799
H       4.89412345     -1.94736060      2.77254877
H       5.67940087     -0.53640591     -0.69668764
