50
C[C@H]1CN(c2c(F)c(N)c3c(=O)c(C(=O)O)cn(C4CC4)c3c2F)C[C@@H](C)N1
C      -3.88660750      2.88150041      0.89619424
C      -3.51379162      1.71794300     -0.02122354
C      -2.19867740      1.04663482      0.46654935
N      -1.87999191     -0.13853482     -0.36697820
C      -0.57210696     -0.64065423     -0.19018620
C      -0.27733042     -1.94488892      0.24045010
F      -1.27330879     -2.78636390      0.57439082
C       1.03574211     -2.44419548      0.35219350
N       1.22131437     -3.71150781      0.94673145
C       2.10994279     -1.57470606      0.07820593
C       3.51716878     -2.07286761      0.14470338
O       3.78860792     -3.24320998      0.41802499
C       4.61988803     -1.14509077     -0.17988461
C       6.04885153     -1.52357149     -0.17273507
O       6.95110894     -0.74546081     -0.44684915
O       6.28867886     -2.80903457      0.16362472
C       4.28341934      0.10793802     -0.50985345
N       3.00183821      0.61927128     -0.55445598
C       2.83735451      2.04592908     -0.90094174
C       3.72097134      3.13589072     -0.33835184
C       2.29641341      3.03765878      0.10210128
C       1.88353285     -0.24121445     -0.32535698
C       0.54381294      0.17718381     -0.48119693
F       0.29934580      1.40173890     -0.98153865
C      -3.00333499     -1.09547380     -0.45343640
C      -4.29188731     -0.37393345     -0.93887035
C      -5.46623060     -1.35050244     -0.97260189
N      -4.65850056      0.77895335     -0.08260959
H      -3.08156683      3.62368191      0.92474523
H      -4.79104219      3.38748286      0.54048613
H      -4.06891626      2.54284825      1.92226652
H      -3.34905289      2.12181191     -1.02892827
H      -1.40313243      1.79849301      0.43617084
H      -2.30498030      0.73035151      1.51334662
H       0.44668152     -4.35535843      0.80350189
H       2.14013873     -4.12463193      0.76515295
H       5.47369755     -3.33135296      0.36094344
H       5.05571237      0.82938576     -0.77231795
H       2.52554322      2.17304990     -1.93622598
H       4.48180917      2.88541091      0.39122263
H       3.99483865      3.95138766     -0.99793777
H       2.10063879      2.69435031      1.11081639
H       1.59395469      3.77959833     -0.25909615
H      -3.19308962     -1.54469158      0.53001786
H      -2.76484951     -1.89374980     -1.16720585
H      -4.12863629     -0.00515723     -1.96014806
H      -6.37243911     -0.86144677     -1.34694498
H      -5.68480951     -1.75254981      0.02306128
H      -5.24710202     -2.19442090     -1.63552940
H      -4.84962138      0.43607547      0.85901375
