28
CC(O)c1cc(N)ccc1N.O=S(=O)([O-])[O-]
C      -2.49177925     -0.30869719      1.07360964
C      -1.72369588     -0.74363416     -0.16816357
O      -2.45652413     -0.32868866     -1.32198935
C      -0.29803678     -0.21845284     -0.16091816
C       0.70708137     -1.05473419      0.37159142
C       2.05053819     -0.67448323      0.38327308
N       3.00577599     -1.47257556      1.02089184
C       2.38184734      0.60186879     -0.06107589
C       1.40172508      1.44739669     -0.58700973
C       0.05394605      1.07033625     -0.60330647
N      -0.86837207      1.90255434     -1.25920199
O      -0.03906732     -0.90764337     -1.16104708
S       0.00000005      0.00000006      0.00000002
O      -0.05419474     -0.79010294      1.24345217
O       1.24850842      0.78337311     -0.03043952
O      -1.15524642      0.91437314     -0.05196558
H      -3.51016913     -0.71187128      1.05256763
H      -2.58813212      0.78184294      1.12177587
H      -2.00079443     -0.64947611      1.99089215
H      -1.70266637     -1.83891803     -0.20953497
H      -1.79712924     -0.03029906     -1.97883469
H       0.43166845     -2.02696953      0.77537250
H       3.95858928     -1.29075220      0.72116731
H       2.78453495     -2.46319875      1.01780049
H       3.40996580      0.94989001     -0.01641110
H       1.70219057      2.41779241     -0.97374387
H      -0.61838147      2.88685670     -1.23050781
H      -1.83218221      1.75421265     -0.95824434
