43
O=C(O)C1OC(c2ccccc2)OC1C1COC(c2ccccc2)O1
O       1.35385246      3.06812233     -0.40551345
C       0.56494951      2.49141602      0.32693234
O      -0.67275007      2.99441874      0.51693018
C       0.81003994      1.21040123      1.10193524
O       2.14409988      1.17531296      1.62532418
C       2.61331596     -0.16176472      1.43465417
C       3.85115990     -0.22606185      0.56160005
C       4.43667988      0.92168772      0.00537429
C       5.57812537      0.82435243     -0.79379509
C       6.15119528     -0.41987507     -1.04683297
C       5.58378896     -1.56937603     -0.50254177
C       4.44243556     -1.47342598      0.29577725
O       1.57192775     -0.95428094      0.84770777
C       0.73796000      0.00422670      0.19015071
C      -0.66832817     -0.53740625      0.00262028
C      -0.72468692     -1.79192001     -0.83379786
O      -2.08502677     -1.84031305     -1.26635350
C      -2.52058346     -0.47080246     -1.29497965
C      -3.82410301     -0.30016130     -0.53706856
C      -4.13774211      0.91323963      0.09830912
C      -5.35251125      1.07872638      0.76736308
C      -6.27746086      0.03807194      0.80178935
C      -5.99076957     -1.16669845      0.16461705
C      -4.77597902     -1.33262976     -0.50421598
O      -1.48767641      0.36434245     -0.74071147
H      -0.68720717      3.79889941     -0.04346668
H       0.13048526      1.14414757      1.95866444
H       2.85381745     -0.57825203      2.41923244
H       4.00683006      1.90582456      0.18566462
H       6.01756584      1.72311095     -1.21909624
H       7.03893222     -0.49271873     -1.66937401
H       6.02827183     -2.54116705     -0.70066916
H       4.00624418     -2.38089468      0.70936655
H       1.18258850      0.23195538     -0.78871090
H      -1.14752794     -0.72232849      0.97330124
H      -0.46966023     -2.69827991     -0.27826943
H      -0.09302063     -1.72611209     -1.72672898
H      -2.67554167     -0.17404841     -2.33829055
H      -3.43066527      1.74069702      0.07848302
H      -5.57614676      2.02142801      1.25984175
H      -7.22277239      0.16680115      1.32210418
H      -6.71275659     -1.97887466      0.18590345
H      -4.57134950     -2.27979062     -1.00053755
