24
O=C(O)Cc1cccc2ccccc12
O      -2.78969065     -1.31389952      0.80583278
C      -2.32655705     -1.73802601     -0.23915317
O      -2.53896044     -3.02419049     -0.59393753
C      -1.54990649     -0.98303812     -1.28906941
C      -0.78832146      0.20686820     -0.74096147
C      -1.34585241      1.48544972     -0.92227438
C      -0.70012205      2.61801489     -0.43986878
C       0.51027730      2.49076859      0.23474230
C       1.09097420      1.23132706      0.44181085
C       2.31056253      1.12689335      1.13125128
C       2.90614386     -0.11278231      1.35418507
C       2.28803159     -1.26554488      0.89044648
C       1.07492880     -1.17845419      0.20224669
C       0.44515417      0.06472573     -0.04259942
H      -3.06388476     -3.38339668      0.15279770
H      -2.26456118     -0.65917432     -2.05552752
H      -0.84993323     -1.65963333     -1.79254505
H      -2.29586339      1.60513156     -1.43925540
H      -1.14133583      3.60050838     -0.58473466
H       0.99796914      3.38954018      0.60603776
H       2.80834042      2.01925265      1.50498768
H       3.84874082     -0.17551315      1.89096813
H       2.74544278     -2.23616425      1.06332327
H       0.62842333     -2.10866305     -0.13870319
