17
O=C(O)c1ccc(N=C=S)cc1
O       3.11791450     -0.54459209     -1.51610010
C       2.58236743     -0.41870679     -0.43074439
O       3.30226064     -0.36726423      0.70346342
C       1.12306464     -0.30494142     -0.19133594
C       0.58819437     -0.16867929      1.09508166
C      -0.79593246     -0.06637959      1.27092494
C      -1.66017961     -0.08341410      0.16792819
N      -3.05051931     -0.01086700      0.35116532
C      -3.44273548      1.09644307      0.32056846
S      -4.06324104      2.78617852      0.27813748
C      -1.11908933     -0.24238353     -1.11457127
C       0.26371930     -0.34496790     -1.29589533
H       4.22988605     -0.45275621      0.39766845
H       1.23695758     -0.14727797      1.96768499
H      -1.20172855      0.02302079      2.27619338
H      -1.77689256     -0.29103587     -1.97946776
H       0.66595383     -0.46237640     -2.30070149
