29
O=C(NO)c1ccccc1N=Cc1ccccn1
O      -2.94367084      0.70572624     -2.67766283
C      -2.01745433      0.32504995     -1.96247270
N      -0.72302619      0.70019985     -2.21789845
O      -0.49209933      1.38674421     -3.43017365
C      -2.24841210     -0.60080434     -0.81307147
C      -3.56131566     -1.07628338     -0.63829569
C      -3.86688725     -1.97224708      0.38657212
C      -2.86347392     -2.41005102      1.24357866
C      -1.55851751     -1.94154105      1.08255138
C      -1.23445371     -1.01906990      0.07272390
N       0.10624986     -0.58479761     -0.04324623
C       0.54232811      0.17782303      0.91693404
C       1.92075825      0.70733597      0.95749010
C       2.83586192      0.41426921     -0.04490430
C       4.11373295      0.95488179      0.06054738
C       4.42613379      1.75857644      1.15284369
C       3.44400292      1.99086782      2.10379522
N       2.19478262      1.48194319      2.03467818
H       0.06049886      0.21663365     -1.78146909
H      -1.40293406      1.46936748     -3.78899241
H      -4.35437419     -0.75372560     -1.31160698
H      -4.88547931     -2.33389271      0.50621450
H      -3.09299144     -3.11897129      2.03542885
H      -0.78043049     -2.30190762      1.75194236
H      -0.10482704      0.47807160      1.76285625
H       2.56915342     -0.21535186     -0.88649509
H       4.85897725      0.75278084     -0.70418139
H       5.41330445      2.19549854      1.26017482
H       3.64456296      2.61287364      2.97213883
