24
Nc1ccc2ccc(S(=O)(=O)O)cc2c1
N      -3.83749047      0.97071473     -1.11455205
C      -2.76416719      0.33469041     -0.47945148
C      -2.90142942     -0.97035102     -0.00756980
C      -1.80600747     -1.65799765      0.52314092
C      -0.53580496     -1.06661854      0.55132091
C       0.57535582     -1.74530203      1.08123497
C       1.83795554     -1.15122223      1.08649495
C       1.98999452      0.13063049      0.55947392
S       3.59042909      0.88393224      0.52469395
O       4.58557619     -0.16653804      0.49047769
O       3.60668300      1.92761188      1.52322780
O       3.67885500      1.57952216     -0.92896369
C       0.90059395      0.82304227      0.02291640
C      -0.37268800      0.23381240      0.01947927
C      -1.48892933      0.90673918     -0.50830467
H      -4.74834095      0.66242286     -0.78870636
H      -3.76100729      1.98287464     -1.13709841
H      -3.86724769     -1.46727999     -0.04573494
H      -1.95439105     -2.66672962      0.90183984
H       0.46258083     -2.74704445      1.49158683
H       2.68773386     -1.69169408      1.49768483
H       4.44079972      1.17757593     -1.39789624
H       1.04359745      1.82264004     -0.38384799
H      -1.36265114      1.89456842     -0.94564695
