54
COCCNC(=O)c1ccc(Nc2ncc3cc(-c4ccncc4)ccc3n2)cc1C
C      -8.57014732     -2.25793566      1.08255827
O      -7.49137455     -1.35980516      1.30534680
C      -7.80836879     -0.00600066      0.95225662
C      -7.57160876      0.24689263     -0.54028981
N      -6.17193864      0.08629777     -0.89515714
C      -5.27596096      1.11913882     -0.70251090
O      -5.60705365      2.25272640     -0.37949936
C      -3.84376178      0.75580698     -0.89074574
C      -3.48634847     -0.01313786     -2.00482568
C      -2.14967613     -0.36028954     -2.22126266
C      -1.13642813      0.05378741     -1.34411692
N       0.17884764     -0.33515784     -1.61622595
C       1.40171879     -0.14353538     -0.97951460
N       1.50281401      0.50772744      0.18597367
C       2.73333510      0.63309328      0.71568402
C       3.87987584      0.12969085      0.12913444
C       5.17084840      0.26012634      0.68519983
C       6.29014140     -0.27318704      0.03204155
C       7.63947585     -0.14201870      0.60114097
C       8.68824070      0.41166576     -0.14267718
C       9.94302265      0.51713656      0.43735997
N      10.22598234      0.11141841      1.69185263
C       9.20854717     -0.42252878      2.39753572
C       7.92038930     -0.56620293      1.90536735
C       6.07593338     -0.93525741     -1.18372066
C       4.78651049     -1.05764185     -1.72099599
C       3.67408867     -0.53137858     -1.07964514
N       2.45764749     -0.66847875     -1.62608692
C      -1.51227697      0.82349323     -0.23622134
C      -2.85446106      1.18035756      0.01038099
C      -3.17651163      2.01611542      1.21836362
H      -9.43446890     -1.97600614      1.69145011
H      -8.24840617     -3.25922313      1.38162662
H      -8.84694755     -2.28587231      0.02538231
H      -7.15494511      0.63919174      1.54932728
H      -8.84315966      0.22706722      1.22830430
H      -7.89488990      1.25980753     -0.80203240
H      -8.12883216     -0.46570086     -1.15474496
H      -5.80685379     -0.85825978     -0.86632772
H      -4.23855625     -0.32742547     -2.72413297
H      -1.90425651     -0.95637033     -3.09731405
H       0.34013768     -0.84290359     -2.47348287
H       2.76639743      1.16993172      1.65954474
H       5.29753921      0.79320793      1.62616757
H       8.53470162      0.76941028     -1.15580377
H      10.77762765      0.94614534     -0.10994472
H       9.46218191     -0.74579901      3.40318904
H       7.15564317     -1.01575251      2.53054713
H       6.91106895     -1.37746129     -1.72447862
H       4.65130352     -1.58091862     -2.66510554
H      -0.75555571      1.16684741      0.46419607
H      -4.02732366      1.59736164      1.76558292
H      -2.33457443      2.04500440      1.91862199
H      -3.39933372      3.04479914      0.91898806
