30
O=C1CCOc2nc(C#Cc3ccccc3)ccc21
O       5.27831778      1.26444501     -1.38024154
C       4.69304625      0.58602551     -0.54300721
C       5.41357379     -0.16068311      0.54415740
C       4.57308711     -1.35759654      0.93848368
O       3.28486212     -0.95128986      1.40101973
C       2.59180750     -0.24484901      0.45080563
N       1.25061103     -0.33106732      0.56643869
C       0.51668064      0.35058547     -0.34104928
C      -0.89624889      0.22537784     -0.18524386
C      -2.08538894      0.11821344     -0.05101771
C      -3.49888674     -0.01601850      0.11960519
C      -4.00552307     -0.71201774      1.21965299
C      -5.38523942     -0.84411282      1.38832207
C      -6.25881643     -0.28099788      0.45812496
C      -5.75481164      0.41433272     -0.64109534
C      -4.37511582      0.54726173     -0.81108973
C       1.05988698      1.12263815     -1.35986064
C       2.44642046      1.20730156     -1.45272198
C       3.22359462      0.51314559     -0.52697337
H       6.38781623     -0.49209537      0.17247437
H       5.55521845      0.52326065      1.38750295
H       5.06062977     -1.89517926      1.75868659
H       4.45700905     -2.06883045      0.10967424
H      -3.33029541     -1.15382715      1.94896635
H      -5.77733037     -1.38607988      2.24502356
H      -7.33290907     -0.38427090      0.59014292
H      -6.43605610      0.85285374     -1.36562783
H      -3.99140990      1.09069921     -1.67069183
H       0.42371239      1.65188043     -2.06174970
H       2.91175764      1.81089473     -2.22804065
