14
OCC(O)CO
O      -2.49661135     -0.43466305      0.37765301
C      -1.13358120     -0.85539455      0.42655141
C      -0.22722811      0.31481244      0.05425623
O      -0.58584058      0.76104277     -1.26620979
C       1.24853899     -0.07805397      0.06492301
O       2.01804505      1.05458637     -0.34617750
H      -2.57163386      0.07526622     -0.45459444
H      -1.02330412     -1.68217133     -0.28279090
H      -0.92103853     -1.22165601      1.43506042
H      -0.40701186      1.16712911      0.71920226
H       0.12958572      1.38175194     -1.51525036
H       1.57141793     -0.38247927      1.06494653
H       1.44510711     -0.88510092     -0.64821688
H       2.95355480      0.78493028     -0.32161813
