21
O=C1c2ccccc2/C(=N/O)C1[N+](=O)[O-]
O      -0.64483883     -2.42534286     -1.45959190
C      -0.55868125     -1.34361571     -0.90735319
C       0.70465602     -0.76778953     -0.43984695
C       1.97121917     -1.31962407     -0.49093524
C       3.02534014     -0.56014920      0.02449714
C       2.79471805      0.71793431      0.57080208
C       1.50601801      1.25933521      0.61161007
C       0.47526761      0.49265211      0.10062487
C      -0.94817516      0.81329658      0.00328506
N      -1.43758140      1.96109589      0.34971257
O      -2.81122903      1.99236004      0.09737828
C      -1.66080286     -0.36928844     -0.59942783
N      -2.52318985     -0.99601085      0.43229663
O      -2.00840942     -1.29365347      1.52153104
O      -3.70858249     -1.19134167      0.13000653
H       2.13903717     -2.30640107     -0.91226795
H       4.03789607     -0.96040277      0.00626816
H       3.63240261      1.28966162      0.96734517
H       1.32327287      2.24392329      1.03120852
H      -3.07775921      2.86329094      0.45351486
H      -2.23057820     -0.09993034     -1.49065793
