16
O=[N+]([O-])c1cccc([N+](=O)[O-])c1
O      -3.32656849     -0.60537921     -1.04522584
N      -2.21650336     -1.14564573     -0.94572436
O      -1.96814674     -2.31315953     -1.27496846
C      -1.11389369     -0.34384997     -0.39738921
C      -1.35067729      0.98454127     -0.01118201
C      -0.30692971      1.75182832      0.51066338
C       0.96814934      1.19876780      0.64762516
C       1.19697698     -0.13035857      0.25915798
N       2.54094376     -0.70612599      0.40592692
O       2.70307996     -1.88161741      0.05222800
O       3.42935827      0.01878316      0.87417837
C       0.16002777     -0.91337362     -0.26625060
H      -2.33805865      1.43393175     -0.11014799
H      -0.48754459      2.78270708      0.81116563
H       1.76911241      1.81337571      1.05675020
H       0.34067403     -1.94442507     -0.56680717
