12
C1OC1C1CO1
C       2.01805078      0.14653184      0.11137523
O       1.49289949     -1.03546031     -0.50321429
C       0.61328405      0.09918528     -0.43383814
C      -0.61328288     -0.09920236      0.43383507
C      -2.01805222     -0.14651875     -0.11137410
O      -1.49288217      1.03545440      0.50323606
H       2.15717310      0.13822890      1.18484630
H       2.76167029      0.70945496     -0.43824415
H       0.44879922      0.63929106     -1.36270137
H      -0.44880272     -0.63932815      1.36268741
H      -2.15717896     -0.13819443     -1.18484433
H      -2.76167798     -0.70944243      0.43823631
