28
Clc1ccc(C(c2ccc(Cl)cc2)C(Cl)Cl)cc1
Cl     -4.99367519      2.10504060     -0.49994751
C      -3.56648411      1.18621715     -0.22095986
C      -3.15978990      0.91679919      1.08238085
C      -1.99995123      0.17146778      1.30828537
C      -1.23762844     -0.31614426      0.23199186
C       0.03346132     -1.12706281      0.51185385
C       1.27345076     -0.27439992      0.21190144
C       1.86032355     -0.21292318     -1.06336944
C       2.97984341      0.59218184     -1.29512522
C       3.51884873      1.34968341     -0.25906939
Cl      4.89483680      2.34019124     -0.54920072
C       2.94659196      1.31255526      1.00834578
C       1.82843691      0.50811087      1.24155397
C       0.02076727     -2.52952152     -0.15942510
Cl      1.48310063     -3.48399468      0.26128918
Cl     -1.40608012     -3.49801888      0.34764175
C      -1.66209052     -0.02844572     -1.07643647
C      -2.82234027      0.71799950     -1.30040024
H      -3.73879779      1.28295324      1.92611223
H      -1.69982201     -0.02719014      2.33554628
H       0.05759631     -1.32818871      1.59437178
H       1.46227001     -0.78242786     -1.89901349
H       3.42450546      0.62536737     -2.28651638
H       3.36198088      1.90710902      1.81769708
H       1.39162109      0.49916421      2.23870578
H      -0.01622575     -2.46856243     -1.25050622
H      -1.09707326     -0.37109908     -1.93957325
H      -3.13767650      0.93313852     -2.31813393
