20
Nc1c(Cl)c(F)nc(OCC(=O)O)c1Cl
N      -3.42428469     -0.87371769     -0.90995382
C      -2.20909276     -0.30222677     -0.46023894
C      -2.14882587      1.04576445     -0.07278458
Cl     -3.49644567      2.10139613     -0.31159338
C      -0.97426131      1.53036398      0.49398763
F      -0.89843733      2.82273878      0.85051191
N       0.12589958      0.78127938      0.72775735
C       0.04732660     -0.52229330      0.38023918
O       1.14361901     -1.32902833      0.61858001
C       2.33480566     -0.61711076      0.93551959
C       2.93094084      0.16807419     -0.22445045
O       2.54485165      0.19369061     -1.38265175
O       4.02592397      0.86995687      0.14135478
C      -1.09000894     -1.10946125     -0.18374317
Cl     -1.12105035     -2.79822446     -0.57269228
H      -4.05144046     -0.21278474     -1.36464813
H      -3.30193288     -1.74062565     -1.43111993
H       2.18788916      0.03558512      1.80436450
H       3.07752467     -1.37149878      1.21844557
H       4.29699910      1.32812222     -0.68212788
