36
CC(=O)OCCC(C)CCC=C(C)C
C       4.80819905      1.28290246      1.71325725
C       4.63517497      0.34021813      0.56215730
O       5.54452426     -0.28808141      0.03948202
O       3.32611650      0.29279068      0.19339989
C       3.05469362     -0.59171274     -0.90030888
C       1.55314471     -0.58578185     -1.19021968
C       0.65676307     -0.95990859      0.01095885
C       1.01925065     -2.33564989      0.58238002
C      -0.84099450     -0.95465930     -0.37006372
C      -1.36737995      0.42353849     -0.78225496
C      -2.85355021      0.38725812     -1.01466484
C      -3.82478828      0.87506503     -0.21828789
C      -3.60208648      1.52894702      1.11744607
C      -5.27179895      0.78096031     -0.62741021
H       4.50216639      2.28942619      1.41730059
H       4.22039513      0.93685091      2.56716427
H       5.86224182      1.31021991      2.00407296
H       3.59081833     -0.23848651     -1.78933593
H       3.40068964     -1.60380714     -0.66333921
H       1.29074181      0.42647919     -1.51880758
H       1.35164774     -1.26051464     -2.03097856
H       0.80499849     -0.21933669      0.80750004
H       0.33495944     -2.61508351      1.39091619
H       2.02866171     -2.33944835      1.00464830
H       0.96600013     -3.11135007     -0.18891217
H      -1.01753519     -1.67436832     -1.18049495
H      -1.42327572     -1.30827390      0.49169154
H      -1.09160713      1.17220309     -0.03374240
H      -0.89883354      0.74532146     -1.71921486
H      -3.14263773     -0.08268591     -1.95503244
H      -4.21778160      1.04188576      1.88141818
H      -2.56739135      1.47123719      1.46243038
H      -3.88402921      2.58578165      1.07059260
H      -5.83518348      0.19073326      0.10272437
H      -5.39764060      0.30655978     -1.60636860
H      -5.71467357      1.78077015     -0.68373521
