69
O=C(O)CCCCCNc1nc(NCCCCCC(=O)O)nc(NCCCCCC(=O)O)n1
O       5.30746109      2.37658106      3.73233485
C       5.70437921      3.04523962      2.79442946
O       6.30518886      4.23296275      3.00525484
C       5.61727239      2.71520507      1.32906071
C       4.91962284      1.37583311      1.09194242
C       4.85727230      1.04036450     -0.39941917
C       4.29650477     -0.35764979     -0.68679425
C       2.84223398     -0.58475572     -0.26306581
N       1.95059083      0.23629168     -1.06477218
C       0.59672623      0.07928740     -0.78062374
N       0.12777897     -1.08898901     -0.36733338
C      -1.17525758     -1.13768547     -0.14233599
N      -1.64964154     -2.36657966      0.31017280
C      -2.95377945     -2.73848537     -0.20933528
C      -3.36308014     -4.11932090      0.31275064
C      -2.51043782     -5.25633312     -0.26012977
C      -3.01700303     -6.62135311      0.20979629
C      -2.14874120     -7.75415774     -0.33517032
C      -2.64102464     -9.10129656      0.11983977
O      -3.59667595     -9.34074579      0.83679472
O      -1.88080262    -10.10246006     -0.36696440
N      -2.00352252     -0.11859649     -0.32036401
C      -1.44228129      1.01028967     -0.72291353
N      -2.31009822      2.08653648     -0.87670448
C      -1.98049540      2.98989063     -1.96411229
C      -3.00317284      4.12383943     -2.03144164
C      -3.13826721      4.97850935     -0.76375287
C      -1.87538211      5.75093098     -0.36762503
C      -1.01928361      5.02765151      0.67430639
C       0.14506921      5.87523786      1.11433798
O       0.43640201      6.99605473      0.73178478
O       0.90052215      5.25503793      2.04253770
N      -0.14800888      1.15677069     -0.96857813
H       6.30758511      4.32747328      3.98088745
H       6.63615905      2.68117780      0.92765292
H       5.06110651      3.51603093      0.82898792
H       3.90840675      1.41773758      1.51295785
H       5.45454786      0.58172036      1.62835543
H       4.27157663      1.80189416     -0.92710580
H       5.87093885      1.08712911     -0.81723575
H       4.92635432     -1.10042539     -0.18085267
H       4.38993173     -0.55151069     -1.76364393
H       2.71230518     -0.37817214      0.80555267
H       2.61957745     -1.64778541     -0.42328328
H       2.11821124      1.23553515     -1.02771607
H      -0.89949359     -3.02287737      0.11964286
H      -2.95041031     -2.74380486     -1.30684153
H      -3.71157269     -2.01753689      0.12277983
H      -4.41238895     -4.29089472      0.04221293
H      -3.30776909     -4.13402614      1.40866063
H      -1.46622544     -5.13631504      0.04983204
H      -2.53081499     -5.21600714     -1.35604923
H      -3.02460471     -6.65650413      1.30588834
H      -4.05446217     -6.76231149     -0.11714416
H      -2.16098087     -7.73732184     -1.43104738
H      -1.11679601     -7.63240127      0.01300535
H      -2.29444010    -10.91287311     -0.00358765
H      -3.24432442      1.69098110     -0.90373073
H      -0.97699860      3.41475530     -1.84970193
H      -1.99739680      2.44781603     -2.91888775
H      -2.74551739      4.77698327     -2.87530972
H      -3.98962857      3.69794501     -2.26098941
H      -3.50112119      4.37056878      0.07312630
H      -3.92780747      5.71446893     -0.96469477
H      -1.27722708      5.99518290     -1.25351298
H      -2.18932246      6.71210284      0.06010082
H      -1.62556704      4.79997530      1.55846840
H      -0.61719670      4.09621614      0.27012429
H       1.59529716      5.91096802      2.25919165
