17
CC(C)OC(=O)C(F)(F)F
C      -1.44254218     -0.72305222      1.00031195
C      -0.90934191     -0.14171233     -0.30407843
C      -1.76909237      1.02941414     -0.76383015
O       0.42275416      0.36548045     -0.09667124
C       1.44464001     -0.54503076     -0.18641814
O       1.28063318     -1.73739253     -0.42802657
C       2.78936080      0.13691180      0.06134537
F       2.87119203      0.68225534      1.30913526
F       3.84979482     -0.71150543     -0.05208095
F       3.02397579      1.15645074     -0.81426239
H      -2.47303083     -1.07309294      0.88582438
H      -1.41139804      0.02239450      1.80267287
H      -0.82799641     -1.56600226      1.33247403
H      -0.91107118     -0.90382173     -1.09269414
H      -1.76748657      1.83491371     -0.02102593
H      -2.80280055      0.71838337     -0.94292114
H      -1.36759078      1.45540614     -1.68975480
