12
C=CCCBr
C       2.02482974     -0.01699459     -0.27835450
C       0.90651442      0.37970388      0.34193039
C      -0.35537774     -0.43465754      0.40536026
C      -1.50367349      0.27181196     -0.29778106
Br     -3.12448222     -0.80103786     -0.15928788
H       2.91048939      0.61158217     -0.28335744
H       2.08794675     -0.97225827     -0.79085323
H       0.89927533      1.34302920      0.84893650
H      -0.60353964     -0.60357685      1.46058021
H      -0.19684243     -1.42610678     -0.03758433
H      -1.73375156      1.24010881      0.15643044
H      -1.31138854      0.40839589     -1.36601937
