28
COc1ccc2c(c1)[nH]c1c(C)nccc12
C      -5.05102159     -0.77259980      0.09847307
O      -3.80706343     -1.45391511     -0.00245015
C      -2.67486306     -0.68210277     -0.00598104
C      -2.63677444      0.70888881      0.08052186
C      -1.41305660      1.39668262      0.06741403
C      -0.20694548      0.67475665     -0.03433513
C      -0.27284507     -0.71327451     -0.11935993
C      -1.48509884     -1.41422692     -0.10761836
N       1.01860431     -1.17442081     -0.20851871
C       1.91878598     -0.13345841     -0.18421159
C       3.31680696     -0.14011137     -0.24947337
C       4.14980506     -1.37659174     -0.36657293
N       3.95820585      1.05886024     -0.20313652
C       3.24322171      2.19972353     -0.09757925
C       1.86166133      2.26280273     -0.02950088
C       1.17583576      1.04121398     -0.07521212
H      -5.20887618     -0.10965417     -0.75862937
H      -5.12531648     -0.22399942      1.04322567
H      -5.84571518     -1.52479994      0.08759173
H      -3.54298098      1.30022456      0.16007475
H      -1.39937907      2.48055114      0.13555919
H      -1.51218146     -2.49735952     -0.17509527
H       1.27091229     -2.14902299     -0.28206631
H       5.21537074     -1.12901508     -0.40028743
H       3.97600655     -2.03044924      0.49343151
H       3.89363450     -1.91775742     -1.28246575
H       3.83814303      3.10864856     -0.06749269
H       1.34512379      3.21040639      0.05458818
