52
COC(=O)c1cccc(C)c1S(=O)(=O)NC(=O)Nc1nc(OCC(F)(F)F)nc(N(C)C)n1
C       2.42012582     -1.55287152     -3.17256859
O       3.30513135     -1.09523437     -2.15009859
C       2.69682464     -0.34545806     -1.20136819
O       1.53060778      0.00765173     -1.17215150
C       3.68726914      0.00635921     -0.16416524
C       4.81821001      0.72029642     -0.58817857
C       5.76688437      1.13313225      0.33840108
C       5.58739181      0.84009895      1.68875738
C       4.46031387      0.12687850      2.14508365
C       4.37591587     -0.14847941      3.62220990
C       3.49625193     -0.29332880      1.19990874
S       2.08668133     -1.29752693      1.64500207
O       2.13889488     -1.66197906      3.04305382
O       1.99029929     -2.35038965      0.65232156
N       0.78859363     -0.30487933      1.42220836
C       0.58031852      0.93310559      2.00618942
O       1.35639179      1.41211871      2.82404270
N      -0.51845091      1.64149613      1.63266787
C      -1.52848100      1.29017367      0.75264717
N      -2.48026216      2.19536867      0.61432719
C      -3.43602807      1.84106118     -0.22645068
O      -4.42652722      2.78418992     -0.38962153
C      -5.50995854      2.36500799     -1.22819049
C      -6.54452276      1.51506391     -0.50370214
F      -6.06689403      0.32267038     -0.09309146
F      -7.03397876      2.15795714      0.58105807
F      -7.59436679      1.26230960     -1.32355619
N      -3.50052719      0.70339044     -0.90167058
C      -2.50870222     -0.15510561     -0.69259238
N      -2.52156695     -1.36960223     -1.37998197
C      -3.85032404     -1.84547125     -1.73962822
C      -1.58251511     -2.37425177     -0.89886928
N      -1.49751317      0.11638297      0.12916277
H       2.00766135     -0.70489577     -3.72812825
H       1.61806257     -2.16168421     -2.74320670
H       2.99413531     -2.17506423     -3.86462955
H       4.95786601      0.96010958     -1.64035098
H       6.64531470      1.68593133      0.01373165
H       6.34569218      1.17473480      2.39649395
H       3.43830652      0.22821678      4.03922293
H       5.17904821      0.35816104      4.16973124
H       4.48639133     -1.21907276      3.81852017
H       0.23935388     -0.52339898      0.58844628
H      -0.63023278      2.54003899      2.07373196
H      -5.15957762      1.88239569     -2.14902005
H      -6.00583987      3.28655370     -1.55479594
H      -4.46067462     -2.03320989     -0.84863211
H      -3.78081224     -2.78396340     -2.30129788
H      -4.37295119     -1.13538736     -2.39083281
H      -1.64928064     -3.28263841     -1.50820115
H      -1.78960712     -2.65271211      0.14076151
H      -0.54834308     -2.02425016     -0.98270044
