29
CN1CCN(Cc2ccc(Cl)nc2)C1=NC#N
C      -3.64811316      1.34418139      0.30782815
N      -2.43528111      0.68954076     -0.13338765
C      -1.63980896      1.37123244     -1.15248659
C      -0.44156667      0.43862911     -1.30912385
N      -0.43802887     -0.27260213     -0.03218877
C       0.46622356     -1.40094222      0.13659515
C       1.90438713     -0.97451829     -0.00320372
C       2.48015130     -0.05393192      0.88046099
C       3.81208947      0.31664443      0.72049698
C       4.51945282     -0.25232785     -0.32356333
Cl      6.16263227      0.15405512     -0.59750397
N       4.00680888     -1.14314412     -1.19702614
C       2.71320885     -1.48747777     -1.01270747
C      -1.68563524     -0.23363525      0.58904293
N      -1.94701767     -0.96900162      1.61577304
C      -3.15080053     -0.93194002      2.18454521
N      -4.19139459     -0.90686678      2.69672255
H      -3.50324070      1.81874679      1.28338369
H      -3.95362331      2.12508407     -0.39770626
H      -4.47547357      0.63130404      0.36256108
H      -1.32021892      2.35306777     -0.78473295
H      -2.18430576      1.49629723     -2.09340696
H      -0.60641793     -0.26428214     -2.13391230
H       0.48060649      0.99866185     -1.49006000
H       0.35879269     -1.85745235      1.12824772
H       0.21689019     -2.18076441     -0.59344251
H       1.88782207      0.37444872      1.68680678
H       4.27750182      1.02836916      1.39223461
H       2.33435944     -2.21137602     -1.73024641
