35
OC(Cn1cncn1)(c1ccc(F)cc1)c1ccccc1F
O      -0.51985476      1.04060946     -1.63815773
C      -0.50342301      0.31799093     -0.38544768
C      -1.04341203      1.24924538      0.73677574
N      -0.25729623      2.45765732      0.90646386
C       0.44719817      2.85881059      1.99598300
N       1.01014512      4.01873582      1.74752295
C       0.61724723      4.28704535      0.46773910
N      -0.15791209      3.35501295     -0.09688147
C       0.93785222     -0.12335180     -0.05458696
C       1.18940343     -0.97505302      1.04188435
C       2.49173454     -1.36385122      1.36292088
C       3.55350386     -0.90567749      0.59516032
F       4.80158090     -1.27984255      0.90482793
C       3.33817932     -0.06689369     -0.48912810
C       2.03666054      0.32251122     -0.81399187
C      -1.37754919     -0.91489863     -0.67052545
C      -1.16747314     -1.65260369     -1.85683696
C      -1.92180163     -2.79117410     -2.15474719
C      -2.90397280     -3.22621648     -1.27116625
C      -3.12594395     -2.52235389     -0.09160164
C      -2.36876088     -1.38638682      0.19910919
F      -2.61646303     -0.76675721      1.36076330
H      -0.37305161      1.99017628     -1.43755652
H      -1.05645593      0.75583150      1.71474282
H      -2.06068415      1.58969852      0.50542651
H       0.51806200      2.29204530      2.91396272
H       0.90515937      5.18408690     -0.06602587
H       0.37204861     -1.35430650      1.65261440
H       2.68419032     -2.02364193      2.20308687
H       4.18217446      0.28011806     -1.07686202
H       1.89161041      0.97982543     -1.66957240
H      -0.40494448     -1.32986176     -2.56597229
H      -1.73921361     -3.33367416     -3.07943362
H      -3.49259068     -4.11049883     -1.50078292
H      -3.88594731     -2.85235725      0.61029299
