34
CCCCCC1(CC)C(=O)NC(=O)NC1=O
C       4.04938880      0.13549743      1.21700488
C       3.72541586     -0.88962519      0.14125387
C       2.54521964     -0.49100789     -0.74753484
C       1.21233014     -0.42752784      0.00534005
C       0.05035293     -0.12820866     -0.95948671
C      -1.33793917     -0.01120777     -0.28043746
C      -2.46378084      0.18890433     -1.34060751
C      -2.28011776      1.37410369     -2.28232011
C      -1.38308211      1.16801456      0.68265986
O      -0.65134946      2.15126545      0.60052733
N      -2.34641370      1.10972335      1.65082071
C      -2.78507548     -0.05508113      2.19675417
O      -3.26126029     -0.09277480      3.32641064
N      -2.59223445     -1.18794354      1.47010145
C      -1.69504641     -1.30415597      0.44388311
O      -1.27883809     -2.41221017      0.11417061
H       4.95866646     -0.15681356      1.75210542
H       4.21707570      1.12480696      0.77978492
H       3.24390357      0.21350622      1.95295833
H       3.52848276     -1.86069631      0.61016652
H       4.60985778     -1.01838848     -0.49409943
H       2.75114325      0.47805189     -1.21822947
H       2.46423519     -1.22573036     -1.55821622
H       1.04774459     -1.38068101      0.51849228
H       1.26303134      0.34819788      0.77554354
H       0.01725915     -0.91636339     -1.72340070
H       0.28840451      0.80535796     -1.48424451
H      -3.43471743      0.30670190     -0.84085731
H      -2.55330589     -0.71953118     -1.95170601
H      -2.17986393      2.31488553     -1.73385635
H      -3.15292608      1.46391759     -2.93777206
H      -1.40427601      1.24688617     -2.92470484
H      -2.36040688      1.89695700      2.28610158
H      -2.81187767     -2.04883068      1.95339428
