16
OCc1ccc(Cl)cc1
O      -2.73764169      0.51991464      0.71980542
C      -2.10514595     -0.26649638     -0.27996042
C      -0.60718026     -0.15366502     -0.17681919
C       0.07707069      0.86006729     -0.86290437
C       1.46344793      0.98270611     -0.74438143
C       2.16995899      0.09801226      0.06755496
Cl      3.87736474      0.25018868      0.21459893
C       1.50174988     -0.90583190      0.76531918
C       0.11537842     -1.02874794      0.64701646
H      -2.04433789      0.95419562      1.24549765
H      -2.42575743     -1.30680547     -0.16073052
H      -2.45368917      0.07060220     -1.26186299
H      -0.46761544      1.56053365     -1.49348202
H       1.98372152      1.76926082     -1.28456049
H       2.05190699     -1.59272267      1.40301349
H      -0.39923135     -1.81121188      1.20189533
