33
CCCSP(=O)(OCC)Oc1ccc(Br)cc1Cl
C       4.25508652     -2.43082067     -0.38087601
C       3.84015953     -1.49393099      0.74417044
C       2.40261206     -1.02058221      0.56041593
S       1.92516805      0.09347871      1.90814228
P      -0.02306644      0.63707239      1.39047531
O      -0.63670961      1.52103316      2.44044553
O      -0.00604543      1.33837248     -0.07007297
C       0.39368737      2.69654963     -0.12680446
C       0.50415425      3.10544791     -1.58090901
O      -0.88174019     -0.70929403      1.11369413
C      -2.12943498     -0.63110309      0.56068139
C      -3.18084139     -0.07918079      1.29124920
C      -4.45514468     -0.01524551      0.72523971
C      -4.66831730     -0.51097758     -0.56190306
Br     -6.39646101     -0.42100270     -1.32343011
C      -3.62173329     -1.07435843     -1.29116947
C      -2.34930267     -1.13698617     -0.72386140
Cl     -1.06112369     -1.83343697     -1.63814268
H       3.61356979     -3.31743963     -0.40972223
H       4.19265112     -1.92935094     -1.35203868
H       5.28780181     -2.76317948     -0.23583179
H       3.94996701     -2.02122427      1.69964419
H       4.52555308     -0.63780124      0.75998851
H       2.29315511     -0.48776189     -0.38965441
H       1.71691343     -1.87377449      0.55187582
H      -0.35369115      3.31388604      0.38130132
H       1.35886441      2.82230534      0.37323502
H       1.23654525      2.48007926     -2.10230128
H       0.80623885      4.15264379     -1.67032697
H      -0.45364348      2.96859346     -2.09376991
H      -3.01929799      0.30001525      2.29797655
H      -5.27253841      0.41982880      1.29573122
H      -3.79303596     -1.46185514     -2.29163167
