42
COc1ccccc1NC(=O)C(N=Nc1ccc(Cl)cc1[N+](=O)[O-])C(C)=O
C       2.88187402     -2.46309433      1.16145796
O       2.42853198     -1.25987104      0.55263579
C       2.97745738     -0.08525471      1.01237861
C       4.07369952      0.00065084      1.87518453
C       4.55271648      1.24975999      2.27369864
C       3.94246523      2.41252023      1.81059180
C       2.84799087      2.33640328      0.94593318
C       2.35857700      1.09329994      0.54150255
N       1.25120897      0.92620479     -0.31963383
C       0.44377046      1.89791047     -0.88780012
O       0.58866253      3.11053765     -0.76215171
C      -0.65426633      1.29950558     -1.75599296
N      -1.49402367      0.47188379     -0.86218159
N      -1.83909480     -0.60650787     -1.39083009
C      -2.74838092     -1.27228255     -0.54960102
C      -4.10370890     -0.90867419     -0.59607924
C      -5.04831559     -1.54175666      0.21885066
C      -4.64757373     -2.55247381      1.09115358
Cl     -5.81098118     -3.32834966      2.09104765
C      -3.31283940     -2.93941284      1.15729501
C      -2.37802498     -2.29880154      0.32933269
N      -0.99019662     -2.71856167      0.41557779
O      -0.35361900     -2.85231243     -0.63840019
O      -0.54303100     -2.95289057      1.54725287
C      -1.54887459      2.33035205     -2.43251718
C      -0.88052742      3.32740406     -3.34834359
O      -2.77699808      2.34989497     -2.30017448
H       3.93428054     -2.65060518      0.92493857
H       2.71518160     -2.44619087      2.24344413
H       2.29896225     -3.29017017      0.74666638
H       4.57801053     -0.88194536      2.25278975
H       5.40381523      1.31603692      2.94677288
H       4.31352202      3.38503046      2.12573121
H       2.39808808      3.26532019      0.61142178
H       1.01881236     -0.05209899     -0.48892840
H      -0.18525091      0.69338507     -2.54242332
H      -4.42002072     -0.11067711     -1.26737401
H      -6.09103394     -1.23571386      0.16941591
H      -3.00696276     -3.72658097      1.84276781
H      -0.01034188      2.87323263     -3.82953860
H      -1.58330882      3.62299957     -4.13290038
H      -0.58025182      4.21189390     -2.78297101
