21
O=C(O)CCc1ccccc1
O       3.55561800     -0.44937881     -1.12568657
C       3.20261131     -0.21772833      0.01750547
O       4.11422803     -0.08472592      1.00124174
C       1.80002905     -0.04674293      0.52580194
C       0.78657777     -0.20138000     -0.60429348
C      -0.62713374     -0.03173181     -0.10645724
C      -1.35242023     -1.13525363      0.36221444
C      -2.65330089     -0.97400387      0.84157067
C      -3.23880338      0.29048243      0.86064812
C      -2.52399189      1.39514020      0.40143246
C      -1.22298553      1.23618946     -0.07835029
H       4.97477338     -0.21545616      0.55038988
H       1.62117673     -0.79999078      1.30168720
H       1.71662303      0.94875205      0.97680255
H       0.89086170     -1.18544561     -1.07987698
H       0.98450363      0.53026466     -1.39862414
H      -0.90881243     -2.12833384      0.35534702
H      -3.21011968     -1.83564850      1.20034640
H      -4.25192282      0.41504777      1.23350326
H      -2.97994093      2.38158374      0.41687163
H      -0.67757112      2.10835988     -0.43174228
