23
O=[p+]1oc2ccccc2c2ccccc21
O       0.92126947      3.64812222     -0.07535068
P       0.18965029      2.44194670     -0.96811808
O      -1.04160466      2.11502275      0.03153567
C      -1.56791116      0.84801653      0.12546331
C      -2.94936410      0.77295465      0.33098319
C      -3.56970885     -0.46832180      0.41939698
C      -2.80787153     -1.62703442      0.30637717
C      -1.42153796     -1.54708133      0.12409202
C      -0.76097093     -0.30737732      0.04898590
C       0.71334998     -0.18145016     -0.09577863
C       1.59504275     -1.23474303      0.21932265
C       2.98096276     -1.09278670      0.09524058
C       3.52375720      0.11016677     -0.33771315
C       2.68036405      1.17389413     -0.64595970
C       1.28365648      1.04083314     -0.52710741
H      -3.53826286      1.68281017      0.41409345
H      -4.64393528     -0.53241721      0.57227494
H      -3.28989338     -2.60027736      0.36620728
H      -0.87334761     -2.48152689      0.03684909
H       1.22270632     -2.18490764      0.59356708
H       3.63570361     -1.92215163      0.35239120
H       4.60118496      0.22643686     -0.42270851
H       3.11676045      2.11987159     -0.96404438
