58
CCCCCCCCS(=O)(=O)NS(=O)(=O)CCCCCCCC
C       8.32379178      2.00056836      1.40133301
C       7.34345123      0.86585983      1.14577064
C       6.24365192      0.83016380      2.20705583
C       5.29865614     -0.36723338      2.06729716
C       4.54548656     -0.47771044      0.73703761
C       3.64027105      0.72249067      0.44916757
C       2.87755875      0.60216070     -0.87348744
C       1.85317389     -0.52955286     -0.87962215
S       0.88035796     -0.50502107     -2.38851037
O      -0.04110907      0.60779794     -2.35271425
O       1.78647806     -0.67084445     -3.50660541
N       0.02687995     -1.89796701     -2.32976433
S      -1.26656902     -2.17321274     -1.36760499
O      -1.58229630     -3.57318488     -1.56501664
O      -0.96845006     -1.66966819     -0.04633638
C      -2.57388473     -1.19699241     -2.11422590
C      -3.96586068     -1.58350472     -1.61725185
C      -4.24598799     -1.29831479     -0.13803698
C      -4.06378467      0.15612766      0.30861047
C      -4.85471996      1.20826062     -0.47731283
C      -6.37372666      1.01601859     -0.54463749
C      -7.16525763      1.60803245      0.62477027
C      -6.94989301      0.91430167      1.95758268
H       7.81397960      2.96937534      1.38871831
H       9.09821414      2.01378233      0.62782496
H       8.81584369      1.88308325      2.37223681
H       6.90730074      0.99898787      0.15001225
H       7.88784348     -0.08537980      1.14054790
H       5.67308526      1.76558948      2.18376135
H       6.70668744      0.78029141      3.20079163
H       4.56844906     -0.32873055      2.88539105
H       5.87493705     -1.28947950      2.21396744
H       3.94085883     -1.39101710      0.77927838
H       5.25447846     -0.61603608     -0.08705893
H       2.92860816      0.85674883      1.27268105
H       4.24527493      1.63481154      0.39973078
H       2.36371509      1.55349195     -1.06055102
H       3.58807435      0.46948279     -1.69847354
H       2.34453683     -1.50557484     -0.83739782
H       1.17030272     -0.42004248     -0.03511505
H       0.30765352     -2.64246047     -2.95575285
H      -2.52076534     -1.38388524     -3.19219036
H      -2.36927834     -0.14186653     -1.93037279
H      -4.70903261     -1.05879302     -2.22923955
H      -4.13150880     -2.65301817     -1.79600700
H      -3.60308388     -1.93354059      0.48247564
H      -5.26914521     -1.62077958      0.08852512
H      -4.31264502      0.21918432      1.37166609
H      -3.00022948      0.41761457      0.24911218
H      -4.47139090      1.22338533     -1.50515776
H      -4.62969206      2.19988816     -0.06551175
H      -6.64003159     -0.03621930     -0.68426459
H      -6.72311628      1.53129525     -1.44957971
H      -8.23166766      1.54154518      0.37533276
H      -6.93762146      2.67542091      0.72841265
H      -5.97467410      1.16480303      2.38201372
H      -7.70658924      1.24425725      2.67718801
H      -7.02758890     -0.17267028      1.85950639
