26
CNC(=O)O/N=C(/C)C(C)SC
C      -4.17187036     -1.66384778     -0.35229830
N      -2.79423707     -1.29352945     -0.52867558
C      -2.31034721     -0.08761819     -0.08980475
O      -3.00726688      0.79423380      0.39516161
O      -0.94851563     -0.04993580     -0.26845846
N      -0.42353542      1.17708753      0.17151941
C       0.86983353      1.24080946      0.04657024
C       1.52708254      2.53405773      0.48340289
C       1.75137088      0.12190919     -0.51525162
C       2.68896201      0.64088202     -1.60042193
S       2.73454782     -0.64712495      0.82721451
C       1.39090621     -1.32068340      1.83860287
H      -4.41072185     -2.46238799     -1.05838740
H      -4.82491048     -0.80439407     -0.52591447
H      -4.30826367     -2.02307006      0.67109995
H      -2.11166005     -1.98814734     -0.79371690
H       1.82180171      3.10608648     -0.40041353
H       2.40988273      2.33115750      1.09346528
H       0.82850006      3.13643649      1.07170815
H       1.14219600     -0.66679245     -0.96460126
H       2.11729836      1.14333818     -2.38897292
H       3.41598309      1.36465239     -1.21537595
H       3.24432445     -0.17992704     -2.06801409
H       0.80174256     -0.51735835      2.28720993
H       1.82131308     -1.91896916      2.64627132
H       0.74558357     -1.96686474      1.23808098
