17
Nc1nc(N)c2nc[nH]c2n1
N       2.74352048     -1.46337781      0.25301739
C       1.53124294     -0.80674502      0.15596980
N       1.58340286      0.53839232      0.12758726
C       0.43403400      1.24393098      0.00710934
N       0.51053634      2.63240739     -0.01577455
C      -0.77518558      0.53928815     -0.06962262
N      -2.09530778      0.93296595     -0.16379127
C      -2.77850136     -0.19247765     -0.19879028
N      -1.96178065     -1.28899449     -0.12681775
C      -0.67742937     -0.83816225     -0.03826289
N       0.43462011     -1.57631991      0.06048084
H       2.67147647     -2.38082724     -0.16279513
H       3.47790606     -0.85714667     -0.08668914
H      -0.36060216      3.08373119      0.24093179
H       1.35848180      2.96912766      0.42120958
H      -3.85491071     -0.27761956     -0.27386213
H      -2.24150344     -2.25817305     -0.12990024
