22
CCCc1ccc(O)cc1
C       3.47288350      0.71665361     -0.25023269
C       2.00359765      0.44355858     -0.53009385
C       1.23714246      0.13953137      0.75759937
C      -0.22172055     -0.13238712      0.48683095
C      -1.15109032      0.91776458      0.47662254
C      -2.49962566      0.66961182      0.20984973
C      -2.91696204     -0.63118653     -0.05170479
O      -4.22331431     -0.91831121     -0.31743331
C      -2.00955854     -1.68309794     -0.05232067
C      -0.66232756     -1.43489058      0.21423308
H       4.00287528      0.93170057     -1.18338688
H       3.95015567     -0.14918428      0.21971746
H       3.59199102      1.57828019      0.41439504
H       1.92151657     -0.39959723     -1.22677572
H       1.56618561      1.31425893     -1.03364647
H       1.68021421     -0.72591290      1.26666166
H       1.32657189      0.97909198      1.45872920
H      -0.82697290      1.93672140      0.67617534
H      -3.20114205      1.49739889      0.20921344
H      -4.73280386     -0.09259364     -0.28138173
H      -2.34891621     -2.69341368     -0.26120201
H       0.04130013     -2.26399681      0.20695855
