32
CCCCCCOC(=O)c1cccnc1
C      -5.31894369     -0.84693516      1.01852464
C      -4.57239141      0.21081985      0.22133122
C      -3.06273088      0.12268723      0.44934623
C      -2.31768188      1.18739156     -0.35853626
C      -0.81412057      1.21496318     -0.08324662
C      -0.08490682     -0.04822308     -0.52941160
O       1.31939317      0.15356887     -0.30912620
C       2.09693981     -0.89553954     -0.67483748
O       1.70327714     -1.94639892     -1.15407640
C       3.52158311     -0.59934525     -0.41306528
C       3.97704452      0.60278196      0.13561370
C       5.34318238      0.78627720      0.34443409
C       6.20747124     -0.24010440     -0.00315345
N       5.80161027     -1.41339736     -0.53494065
C       4.46701500     -1.56710340     -0.72820921
H      -5.00215124     -1.85364059      0.72779860
H      -5.14131032     -0.72708199      2.09202851
H      -6.39587895     -0.76529803      0.84117475
H      -4.93621305      1.20304917      0.51255329
H      -4.79597010      0.08274860     -0.84419319
H      -2.84465104      0.25097969      1.51645131
H      -2.71547921     -0.87671987      0.16416265
H      -2.72824001      2.17508502     -0.11457402
H      -2.49215977      1.02910637     -1.42974151
H      -0.37430623      2.07776816     -0.59980534
H      -0.62762083      1.38739583      0.98418828
H      -0.41650783     -0.91273063      0.05553444
H      -0.26416836     -0.23100897     -1.59526602
H       3.28522493      1.39698531      0.40234949
H       5.72470881      1.70881307      0.76858602
H       7.28016742     -0.14319558      0.14100417
H       4.17781440     -2.52369829     -1.15775161
