24
OC[C@H]1OC(O)[C@H](O)[C@@H](O)[C@@H]1O
O       3.23096927      0.48112536     -1.06111434
C       1.98958329      1.14379714     -1.27708873
C       0.91241842      0.70228300     -0.27506503
O      -0.23539868      1.55286452     -0.42299685
C      -1.28587035      1.25149026      0.48458109
O      -0.86890981      1.50314604      1.82148410
C      -1.75742692     -0.20926027      0.37020284
O      -2.71336657     -0.53233109      1.39264684
C      -0.56871209     -1.16276395      0.49605248
O      -0.97950805     -2.51251150      0.21982826
C       0.52976937     -0.77063028     -0.49128808
O       1.65970304     -1.63564800     -0.32425896
H       3.02347102     -0.46082069     -0.87727172
H       1.66533326      0.95625678     -2.30674214
H       2.16296469      2.22206133     -1.19398373
H       1.33538140      0.82532972      0.73109468
H      -2.13038005      1.91774375      0.27744638
H      -0.78537144      2.47199838      1.87951298
H      -2.24766012     -0.37151745     -0.59688944
H      -2.38211692     -0.10173891      2.20782239
H      -0.17992466     -1.17758189      1.52159674
H      -1.81643587     -2.63593207      0.71244358
H       0.16376985     -0.92068117     -1.51503235
H       1.27771792     -2.53667903     -0.25708096
