51
C=C(C)C1Cc2c(ccc3c2OC2COc4cc(OC)c(OC)cc4C2C3=O)O1
C       7.51826077     -0.35866141     -1.29247835
C       6.53420289     -0.01011091     -0.44494628
C       6.65522484      1.21222467      0.42484508
C       5.27049324     -0.83680380     -0.30983431
C       4.02243366     -0.17555189     -0.92644198
C       3.01175395     -0.57058047      0.08186784
C       3.65188821     -1.06504209      1.20747900
C       2.95942495     -1.45647154      2.33698532
C       1.56575851     -1.36484685      2.31661915
C       0.90848786     -0.87156324      1.17392404
C       1.63564398     -0.44716677      0.05381997
O       1.06126486      0.07384116     -1.07340525
C      -0.24695995      0.59818552     -0.80827480
C      -0.85808994      1.10840366     -2.10386269
O      -2.11120520      1.75263339     -1.87361532
C      -2.98498066      1.03643516     -1.09607643
C      -4.31552135      1.46009877     -1.15401510
C      -5.30446544      0.79287983     -0.42802078
O      -6.63430957      1.13342425     -0.42932596
C      -7.02304471      2.26371759     -1.19629548
C      -4.94691579     -0.31124344      0.36637003
O      -5.97010269     -0.93549112      1.03734091
C      -5.60753086     -1.80297768      2.10367627
C      -3.60937388     -0.72740650      0.41577005
C      -2.60448726     -0.03784275     -0.28276633
C      -1.15980678     -0.48654462     -0.23895620
C      -0.57299915     -0.81872771      1.12271134
O      -1.22074605     -1.10134597      2.12477085
O       5.01641999     -1.10276470      1.09737923
H       8.42783190      0.22890374     -1.37978850
H       7.44847477     -1.24452211     -1.91692440
H       5.82812944      1.90445842      0.24169425
H       6.64925185      0.93451470      1.48357550
H       7.58589225      1.75794407      0.23487825
H       5.41935296     -1.82090411     -0.77834880
H       3.81204490     -0.57903037     -1.92155183
H       4.09532515      0.91487114     -0.98435964
H       3.48483456     -1.83250672      3.20870702
H       0.99203332     -1.68329546      3.18497331
H      -0.15939226      1.44895300     -0.11371948
H      -0.18773029      1.84135406     -2.56738722
H      -0.98363591      0.30501665     -2.84185571
H      -4.54921256      2.30855573     -1.78783717
H      -6.52975822      3.17359906     -0.83879291
H      -6.83259162      2.10172550     -2.26229601
H      -8.10143593      2.39929722     -1.06908119
H      -4.93641828     -1.30894162      2.81453998
H      -5.16680140     -2.72855086      1.71988340
H      -6.52218027     -2.07045339      2.64165020
H      -3.33249312     -1.59900567      1.00146328
H      -1.08223965     -1.40268353     -0.84235170
