62
CC[C@@H]1CN2CC[C@H]1C[C@@H]2[C@@H](OC(=O)c1ccc(Cl)cc1)c1ccnc2ccc(OC)cc12
C      -2.97544883     -4.07763853      1.20757957
C      -3.46645468     -2.95553634      0.30121992
C      -2.36362723     -1.93245854     -0.01644334
C      -1.93109733     -1.11645849      1.22308959
N      -1.88838529      0.33576764      0.94237435
C      -3.27212048      0.76964244      0.63326748
C      -3.82446124      0.04648527     -0.60369826
C      -2.77489878     -0.94290696     -1.13312648
C      -1.51172209     -0.13496271     -1.48907618
C      -1.02303355      0.64861811     -0.24312002
C       0.51343965      0.50578401      0.04473546
O       0.90139236     -0.88749720     -0.01437000
C       1.89479503     -1.26567731      0.82504815
O       2.49610806     -0.55059142      1.60884819
C       2.16584055     -2.72248235      0.67954954
C       1.54837347     -3.51111207     -0.30243593
C       1.83552437     -4.87706664     -0.39075243
C       2.74055709     -5.45586469      0.49769930
Cl      3.08981087     -7.13606753      0.38599422
C       3.36390164     -4.68160490      1.47430427
C       3.07761952     -3.31635673      1.56473867
C       1.33428218      1.32747920     -0.95331805
C       1.86102064      0.70872091     -2.09614345
C       2.58574574      1.46538499     -2.99375043
N       2.81696091      2.78216232     -2.84578316
C       2.31834043      3.39317704     -1.76100989
C       2.56180962      4.75152224     -1.62068162
C       2.08075506      5.48747603     -0.53368856
C       1.33252846      4.85296993      0.44625891
O       0.79347368      5.44034694      1.55599217
C       1.08574556      6.81705926      1.76220765
C       1.07700147      3.48421880      0.32259245
C       1.56070419      2.72310145     -0.77245220
H      -2.66203059     -3.69831785      2.18467740
H      -2.12840198     -4.60338003      0.75527866
H      -3.77627665     -4.80563632      1.37174513
H      -4.32542658     -2.46692333      0.77491690
H      -3.82783062     -3.40104669     -0.63339082
H      -1.49339499     -2.49511777     -0.37984184
H      -2.61015537     -1.28815135      2.06822332
H      -0.95688406     -1.46390062      1.58202290
H      -3.92249897      0.58505866      1.49764383
H      -3.29915058      1.85555484      0.47883576
H      -4.75537602     -0.47344008     -0.35267758
H      -4.06926553      0.77942468     -1.38207324
H      -3.14714141     -1.47191118     -2.01693601
H      -0.74746350     -0.81542691     -1.87894938
H      -1.74353557      0.57210462     -2.29555900
H      -1.19007612      1.71559611     -0.44871800
H       0.70373151      0.87761608      1.05836946
H       0.84334525     -3.07861413     -1.00746455
H       1.35159141     -5.48206760     -1.15353448
H       4.07127344     -5.13064074      2.16695778
H       3.56829240     -2.71712415      2.33056569
H       1.71602927     -0.34806773     -2.29319338
H       3.01273379      1.01849614     -3.88696390
H       3.14678133      5.25737187     -2.38608222
H       2.30956837      6.54660976     -0.49254261
H       2.16362229      6.98194596      1.86361828
H       0.61260710      7.12255759      2.70044553
H       0.66482474      7.43315622      0.96069938
H       0.48602658      3.01863979      1.10827711
