19
CCNc1nc(N)nc(Cl)n1
C       3.36175519      0.26424563     -0.37662150
C       2.05756969     -0.20886681      0.24596094
N       0.95016553      0.16337700     -0.61651546
C      -0.31142340     -0.15545850     -0.13056158
N      -1.28434069      0.67982798     -0.47726448
C      -2.49713123      0.38625257     -0.03066281
N      -3.52574822      1.23604729     -0.38267377
N      -2.80129883     -0.66568048      0.69906939
C      -1.74845190     -1.41687418      0.98144030
Cl     -2.05119428     -2.79914163      1.94111080
N      -0.49004701     -1.23137080      0.61450590
H       4.20976844     -0.01413385      0.25662778
H       3.50982458     -0.18339780     -1.36515359
H       3.36766633      1.35275084     -0.49769405
H       2.10513325     -1.29717380      0.37093327
H       1.94634219      0.24859996      1.23653238
H       0.91751344      1.14061115     -0.88893305
H      -4.41587721      0.75805222     -0.35224012
H      -3.30022586      1.74233322     -1.22786036
