19
CCc1nccnc1C
C      -1.81815210     -1.56621056      0.24495084
C      -1.04954140     -0.87389519     -0.87018701
C       0.25074904     -0.29868580     -0.37551757
N       1.31553985     -1.14620274     -0.39412148
C       2.48339261     -0.64869103      0.06549178
C       2.60048022      0.64396613      0.53378929
N       1.55493033      1.49753394      0.56443981
C       0.36964638      1.01265059      0.10638585
C      -0.78610262      1.96567829      0.13864905
H      -2.07223834     -0.86884539      1.04978306
H      -2.74985101     -1.98906110     -0.14398068
H      -1.23240120     -2.38207180      0.68221339
H      -0.83426413     -1.60248237     -1.66172080
H      -1.66937644     -0.10052401     -1.33557556
H       3.32957579     -1.32516797      0.04683542
H       3.54335219      1.03237580      0.90005622
H      -1.13152087      2.18059910     -0.87707870
H      -1.61145148      1.55388864      0.72649652
H      -0.49276682      2.91514546      0.59909057
