72
CC(C)CCCCCCCOC(=O)/C=C/C(=O)OCCCCCCCC(C)C
C       8.40181982      2.41260956      2.52176843
C       7.47919051      1.55427187      1.65152985
C       7.15934468      2.29422927      0.35218962
C       8.13037092      0.18045432      1.40255686
C       7.31243266     -0.80313927      0.55587082
C       5.94699556     -1.13587365      1.16214217
C       5.22465571     -2.28166320      0.44388429
C       4.82443369     -1.93749112     -0.99296605
C       4.09286325     -3.07929692     -1.70961725
C       2.74158632     -3.45192141     -1.10403836
O       1.90753292     -2.28764978     -1.06451322
C       0.66907862     -2.50454948     -0.56375668
O       0.22581158     -3.57333515     -0.17266087
C      -0.13446968     -1.26854176     -0.53863132
C       0.33702441     -0.06645289     -0.89952259
C      -0.46437731      1.17116425     -0.87224797
O       0.00716804      2.25228075     -1.18921370
O      -1.73575328      0.93508140     -0.47236178
C      -2.60021256      2.07975781     -0.42778236
C      -3.20323527      2.37646922     -1.80017928
C      -3.88959022      1.17955820     -2.46854413
C      -5.02347606      0.53355459     -1.66578748
C      -6.16653936      1.50117658     -1.34953832
C      -7.39921122      0.81353028     -0.75070559
C      -7.14621371      0.21506780      0.63727562
C      -8.38320232     -0.47965560      1.23899264
C      -7.99388775     -1.20323959      2.53094027
C      -9.52482997      0.49791017      1.52241068
H       8.61380748      1.91409853      3.47348795
H       9.35585195      2.60634048      2.01972648
H       7.93638542      3.37774930      2.74818613
H       6.54437124      1.41395283      2.20706079
H       8.05354253      2.41002171     -0.26951838
H       6.76264993      3.29345772      0.56248318
H       6.40268704      1.76299758     -0.23319764
H       9.10128745      0.32510071      0.91088893
H       8.34589454     -0.29134684      2.37025577
H       7.19403608     -0.40294975     -0.45641391
H       7.89486050     -1.72779693      0.45545516
H       5.30320033     -0.24906283      1.15532258
H       6.08221306     -1.42296405      2.21223843
H       4.32876905     -2.52324293      1.02681873
H       5.85789980     -3.17696137      0.44871178
H       4.20429920     -1.03328794     -0.99869792
H       5.72146195     -1.70456572     -1.57781346
H       3.93012345     -2.76225720     -2.74745868
H       4.73340358     -3.96818785     -1.74154258
H       2.86688757     -3.85465430     -0.09304007
H       2.26810908     -4.21666329     -1.73143516
H      -1.15194671     -1.41325395     -0.19181143
H       1.35701518      0.07903066     -1.23889892
H      -3.39032524      1.85651938      0.29660276
H      -2.06659723      2.95587182     -0.03944783
H      -2.40478943      2.71126576     -2.47377637
H      -3.90401357      3.21418859     -1.71283551
H      -4.28295847      1.50584284     -3.43954100
H      -3.13924482      0.41025385     -2.68922583
H      -5.41618992     -0.30775499     -2.25035232
H      -4.61851674      0.10675175     -0.74239717
H      -6.47381852      2.00522626     -2.27429662
H      -5.82237468      2.28192395     -0.66161826
H      -7.75124761      0.03094543     -1.43351279
H      -8.19563057      1.56328819     -0.68895576
H      -6.33898569     -0.52328030      0.56755209
H      -6.79591608      1.00253969      1.31656073
H      -8.74452602     -1.23362278      0.52819273
H      -8.85335184     -1.73375846      2.95446607
H      -7.62407077     -0.49983780      3.28483381
H      -7.20814864     -1.94228692      2.34186816
H     -10.35854192     -0.01234016      2.01702614
H      -9.91699435      0.93337884      0.59873985
H      -9.19587758      1.31502426      2.17325451
