35
C=CCn1ccc(NS(=O)(=O)c2ccc(N)cc2)nc1=O
C       3.87552260      2.44440513      1.43700795
C       3.68595308      1.90972879      0.22312971
C       4.06837028      0.51068471     -0.16686854
N       2.86244048     -0.23660665     -0.50984296
C       2.10858133     -0.80413490      0.49474017
C       0.99319953     -1.48030215      0.22328073
C       0.66591117     -1.54725793     -1.20307252
N      -0.48742585     -2.22956758     -1.59926535
S      -1.82348336     -2.70610080     -0.73927873
O      -1.38396261     -3.51602715      0.37591735
O      -2.78822214     -3.19485470     -1.69879396
C      -2.45225204     -1.17190786     -0.10537083
C      -2.77037876     -0.14357048     -0.99506554
C      -3.23944355      1.07407554     -0.49607562
C      -3.44002550      1.25610514      0.87623337
N      -3.79059974      2.51523173      1.37407887
C      -3.07266427      0.23124877      1.75458247
C      -2.60043175     -0.99147632      1.27061451
N       1.35132675     -1.04053176     -2.16205249
C       2.49214919     -0.33908453     -1.85507760
O       3.15736496      0.18388772     -2.74537959
H       4.32676994      1.88267117      2.24869895
H       3.57997034      3.46960935      1.64094653
H       3.23949006      2.52078627     -0.55966140
H       4.59183802     -0.01075002      0.64392915
H       4.75626191      0.54836436     -1.01844466
H       2.46113106     -0.68146106      1.51480802
H       0.40421877     -1.95194502      0.99216797
H      -0.63062682     -2.28254843     -2.60591289
H      -2.64819718     -0.27349377     -2.06760561
H      -3.45220005      1.88317316     -1.19086513
H      -4.32304036      3.08397908      0.72244802
H      -4.21538633      2.49263325      2.29615139
H      -3.15597489      0.37806259      2.82880724
H      -2.34618430     -1.78302566      1.97169675
