19
COc1cc(C=O)ccc1O
C       2.53491495      1.34699578     -0.03201482
O       2.12247763     -0.00947987     -0.16578991
C       0.77476969     -0.24986093     -0.09062956
C      -0.22250840      0.70383308      0.10326876
C      -1.56519971      0.30115858      0.15820752
C      -2.62667694      1.30716656      0.36347882
O      -2.37499549      2.49912523      0.48961798
C      -1.92052892     -1.04505486      0.02125829
C      -0.92424059     -1.99961671     -0.17266931
C       0.40514302     -1.59452344     -0.22628040
O       1.36156672     -2.55422861     -0.41774409
H       2.26441598      1.74620040      0.95107542
H       2.12564031      1.96484109     -0.83809288
H       3.62581256      1.37311217     -0.11343929
H       0.00795818      1.75897965      0.21433443
H      -3.66336846      0.93225525      0.39807508
H      -2.95952696     -1.36072793      0.06327312
H      -1.17593527     -3.05077401     -0.28160023
H       2.21028171     -2.06940144     -0.42432892
