25
N[C@@H](Cc1ccc(O)c(O)c1)C(=O)O
N      -3.16599849     -1.07864004      0.36006338
C      -2.00848270     -0.12000152      0.36983837
C      -1.08583220     -0.35251246     -0.83758898
C       0.36381831     -0.03901758     -0.53908987
C       0.88703713      1.23628345     -0.81047591
C       2.22190696      1.53433941     -0.52761383
C       3.03206103      0.55646918      0.02635940
O       4.33738224      0.84726847      0.30146375
C       2.52842024     -0.71095382      0.30347269
O       3.38391774     -1.62771207      0.85044412
C       1.19914873     -1.01744222      0.02773629
C      -2.59599252      1.30739435      0.37129910
O      -2.00611333      2.33382083      0.08007419
O      -3.90001831      1.29058268      0.76394910
H      -2.79674660     -2.01308036      0.55843869
H      -3.51655104     -1.14575117     -0.60254689
H      -1.48551199     -0.25345907      1.32375556
H      -1.41938085      0.22689632     -1.70843004
H      -1.13013437     -1.40399584     -1.15360853
H       0.25642845      2.01456440     -1.23864601
H       2.62139283      2.52241985     -0.73524263
H       4.69680565      0.02187511      0.68219685
H       2.89955249     -2.46109198      0.97498831
H       0.80655886     -2.00604183      0.24416780
H      -4.12366825      0.33778591      0.91499509
