43
COC(=O)[C@H]1[C@@H](OC(=O)c2ccccc2)C[C@H]2CC[C@@H]1N2C
C      -1.36525911      3.61224752      1.38834108
O      -1.71320082      2.38303931      0.74847332
C      -1.11026083      2.19034478     -0.45575784
O      -0.34394996      2.99516927     -0.97375233
C      -1.51565543      0.88334305     -1.11027579
C      -0.27334063      0.15074078     -1.66102883
O       0.76059604      0.12718442     -0.64771758
C       2.03686211     -0.00290976     -1.09159489
O       2.37837030     -0.16916159     -2.25136693
C       2.99209802      0.05191053      0.04756622
C       2.59241539      0.38055740      1.35035874
C       3.53140586      0.41641951      2.38419327
C       4.87053682      0.12768501      2.12307543
C       5.27630139     -0.19522783      0.82896378
C       4.34086163     -0.23210214     -0.20691946
C      -0.60959713     -1.29375677     -2.08997501
C      -1.61416548     -1.99487874     -1.15298002
C      -1.13684984     -2.03227777      0.30035358
C      -1.66118180     -0.73100554      0.90866253
C      -2.40629799     -0.03198705     -0.23716396
N      -2.81779090     -1.14494253     -1.12361281
C      -4.00163714     -1.85255584     -0.63889289
H      -1.67705295      4.46452743      0.77662189
H      -0.28982074      3.64875834      1.58871342
H      -1.89653676      3.65846292      2.34295260
H      -2.13456747      1.18553741     -1.96939462
H       0.10505473      0.71224963     -2.52567989
H       1.55632042      0.61788781      1.57472108
H       3.21870919      0.67309159      3.39341839
H       5.60023551      0.15795842      2.92875977
H       6.32104924     -0.41632398      0.62449092
H       4.66785296     -0.48239619     -1.21461551
H       0.30008868     -1.90196172     -2.15095480
H      -1.04294094     -1.26311067     -3.09865243
H      -1.81607711     -2.99956033     -1.54168599
H      -1.57964525     -2.88467499      0.82957035
H      -0.05039813     -2.12553446      0.39159388
H      -2.35479209     -0.96791946      1.72474196
H      -0.85905715     -0.12656718      1.34018345
H      -3.27204387      0.53165059      0.13050942
H      -4.86328630     -1.17606199     -0.62798230
H      -4.25422545     -2.67107719     -1.32186830
H      -3.88912704     -2.27277199      0.36560709
