27
CCCC(Br)(CCC)C(N)=O
C      -2.82948464     -1.93196266      0.64518158
C      -1.71685829     -1.30937791     -0.18680905
C      -1.41434516      0.12205180      0.27588339
C      -0.32992273      0.87649620     -0.52528249
Br     -1.08039144      1.28400854     -2.33145485
C       0.98372484      0.09989299     -0.74414553
C       1.69263662     -0.29014162      0.55857008
C       2.99398523     -1.02764242      0.27971110
C      -0.07112898      2.26604355      0.09706815
N       0.79943752      3.09097040     -0.56374478
O      -0.56600947      2.64638667      1.15519280
H      -3.75653477     -1.35706047      0.55372727
H      -3.02891847     -2.95356723      0.30671944
H      -2.55218999     -1.97290961      1.70337157
H      -2.01876377     -1.32291124     -1.23881096
H      -0.82517466     -1.93798956     -0.09557374
H      -1.11455661      0.08057982      1.33182924
H      -2.34797719      0.70186777      0.26313801
H       1.68028561      0.69546569     -1.34948330
H       0.79322367     -0.80671573     -1.33298047
H       1.04997562     -0.93386006      1.16793133
H       1.91330102      0.60401290      1.15197728
H       3.48496751     -1.29809069      1.21978737
H       3.68395921     -0.40248021     -0.29596543
H       2.81014024     -1.94755019     -0.28446135
H       0.90627139      2.99191216     -1.56605011
H       0.86034767      4.03257109     -0.19532654
