20
Cn1c(N)cc(=O)n(C)c1=O
C      -1.88243555     -1.46892418      0.34698763
N      -0.80870109     -0.50505789      0.12684031
C      -1.11659899      0.83909261      0.00241402
N      -2.42559315      1.28636264      0.00527034
C      -0.11930934      1.72350567     -0.11637320
C       1.28364779      1.29668690     -0.13610344
O       2.15920429      2.15590381     -0.20766880
N       1.50462222     -0.05831194     -0.07938344
C       2.87056182     -0.54356036     -0.10686078
C       0.49750802     -0.99852808      0.08866071
O       0.75369479     -2.20030253      0.19795351
H      -2.50439514     -1.14156176      1.18667487
H      -1.50527648     -2.46781571      0.58247686
H      -2.48802646     -1.53972462     -0.56222401
H      -2.53738269      2.23514403     -0.34398147
H      -3.05750739      0.64782608     -0.46797437
H      -0.28482630      2.78994686     -0.19758017
H       3.12933562     -0.91226863      0.89106393
H       3.58066404      0.23604918     -0.39487028
H       2.95081398     -1.37446207     -0.81532223
