12
ClC/C=C/CCl
Cl     -2.95068022      1.16295367     -0.03729934
C      -1.93330588     -0.28977476      0.04229382
C      -0.53362616      0.10318415      0.39527597
C       0.53362619     -0.10318414     -0.39527462
C       1.93330625      0.28977470     -0.04229497
Cl      2.95067960     -1.16295342      0.03730469
H      -1.99253387     -0.79581766     -0.92582552
H      -2.34502924     -0.95340795      0.80801907
H      -0.40198590      0.57336095      1.36810502
H       0.40198423     -0.57336107     -1.36810353
H       1.99253633      0.79582087      0.92582252
H       2.34502867      0.95340466     -0.80802310
