21
CCOC(=O)n1c(=O)[nH]cc(F)c1=O
C       3.33751847      1.59998771      0.26941526
C       2.71110938      0.22894970      0.10602974
O       1.29192339      0.36748124      0.24246510
C       0.59748029     -0.80127757      0.11096778
O       1.12033607     -1.88956088     -0.10776497
N      -0.74764260     -0.58838618      0.17525452
C      -1.41267619     -1.09503472      1.27159086
O      -0.88523864     -1.61051288      2.25508606
N      -2.78439902     -0.95394652      1.25913025
C      -3.47568454     -0.34144559      0.25452952
C      -2.83074247      0.15637932     -0.79755582
F      -3.47486428      0.76849889     -1.80797143
C      -1.35567525      0.03791983     -0.89594450
O      -0.77684018      0.47741290     -1.88779890
H       4.42545220      1.54601555      0.17276303
H       2.94927716      2.29331277     -0.48404386
H       3.08982076      2.02273806      1.24871651
H       3.09274805     -0.44673455      0.87959839
H       2.95027434     -0.17064142     -0.88583300
H      -3.26842836     -1.32418629      2.07197224
H      -4.55374857     -0.27696935      0.35419020
