63
CC(C)(C)c1nc(CCCCCC2CCCCC2)c2c(N)c(C#N)c(N)nc2n1
C      -3.25126328      0.29997979     -3.52275760
C      -4.32490014     -0.08748088     -2.48667099
C      -5.47923828      0.92515347     -2.54735325
C      -4.85642352     -1.48648997     -2.85503590
C      -3.74560309     -0.07437518     -1.07478881
N      -2.79216477      0.81673054     -0.78909722
C      -2.30350084      0.84562425      0.47167382
C      -1.16204407      1.82086498      0.63364222
C       0.22445324      1.16305258      0.63234652
C       0.60232323      0.57121785     -0.73116131
C       1.98338946     -0.09453389     -0.74147332
C       3.13438473      0.89482431     -0.53126067
C       4.52526824      0.27971885     -0.78707205
C       5.59922572      1.37890240     -0.70470387
C       7.00516142      0.82338297     -0.91392279
C       7.31157947     -0.30593208      0.06301771
C       6.26119880     -1.40769276     -0.01411351
C       4.84915920     -0.86176443      0.19107292
C      -2.79079063      0.00215393      1.49532338
C      -2.38621178     -0.07749950      2.87261300
N      -1.49690584      0.89082006      3.41349699
C      -3.03384591     -0.99253404      3.72178212
C      -2.71128266     -1.07668167      5.11272284
N      -2.43733020     -1.08715916      6.24112752
C      -4.00651083     -1.81739340      3.18127595
N      -4.66746252     -2.80054911      3.91484451
N      -4.36127470     -1.75612257      1.89085821
C      -3.79192200     -0.87865651      1.06911665
N      -4.25959652     -0.90752174     -0.16729740
H      -2.88084901      1.31963108     -3.36440364
H      -2.38931057     -0.37591069     -3.47230501
H      -3.65148972      0.25603093     -4.54227651
H      -6.27068179      0.67267942     -1.83160482
H      -5.92974346      0.95248868     -3.54602406
H      -5.13532498      1.93872477     -2.30927706
H      -5.23970355     -1.50614374     -3.88180216
H      -4.06701319     -2.24349367     -2.77865946
H      -5.67705655     -1.79656559     -2.19750792
H      -1.30530535      2.42961036      1.53050768
H      -1.20052017      2.54745200     -0.19004153
H       0.95409126      1.93287957      0.90770931
H       0.28530056      0.37881844      1.39462642
H      -0.13444929     -0.18833264     -1.01736430
H       0.56566365      1.35319169     -1.49914251
H       2.00843970     -0.87473170      0.02745833
H       2.11320276     -0.59472870     -1.70903705
H       3.09901255      1.29446061      0.48923051
H       2.99558063      1.74595129     -1.21019989
H       4.53801344     -0.12831239     -1.80711272
H       5.54999941      1.87419538      0.27351355
H       5.40301646      2.14938142     -1.45990832
H       7.10324754      0.45489339     -1.94261655
H       7.74043158      1.62683747     -0.79081415
H       8.30120691     -0.72356161     -0.15377450
H       7.34899474      0.09322456      1.08424895
H       6.47346633     -2.17211845      0.74207381
H       6.32142826     -1.90139508     -0.99201037
H       4.13923192     -1.68646765      0.06507322
H       4.74569518     -0.50596256      1.22415406
H      -1.97019197      1.77823294      3.58948763
H      -1.02109094      0.59971599      4.26868228
H      -5.10429525     -2.45815496      4.76429502
H      -5.34686905     -3.24255965      3.29661608
