36
O=C1C=CC(=C(c2ccc(O)cc2)c2ccc(O)cc2)C=C1
O      -2.58712877     -4.95349114     -1.04394465
C      -2.03139433     -3.88944451     -0.80120918
C      -0.64261771     -3.84582340     -0.29456031
C      -0.04311744     -2.67614197     -0.03178454
C      -0.72402636     -1.38626852     -0.23016985
C      -0.10391782     -0.19896724      0.04068317
C      -0.79818305      1.09577204     -0.19507429
C      -0.79292727      1.68097653     -1.46905379
C      -1.44415558      2.89620240     -1.68494201
C      -2.09403425      3.52632083     -0.62987570
O      -2.71631903      4.71178896     -0.88668116
C      -2.10554381      2.96263468      0.64230473
C      -1.45520709      1.74544911      0.85944051
C       1.28289343     -0.16771189      0.57893339
C       1.51206333     -0.30405679      1.95530801
C       2.81444062     -0.27254935      2.45560811
C       3.88329531     -0.10048188      1.58354239
O       5.13782523     -0.07541061      2.11650316
C       3.67444673      0.04127826      0.21511094
C       2.37127298      0.00849955     -0.28717397
C      -2.10586677     -1.43844592     -0.73471080
C      -2.72275062     -2.59773679     -1.00323500
H      -0.14791289     -4.79829923     -0.15315757
H       0.97912175     -2.69878159      0.33300021
H      -0.28547108      1.19351635     -2.29768945
H      -1.44277792      3.35077277     -2.67155605
H      -3.10558985      5.04406734     -0.06121610
H      -2.60899040      3.45055386      1.47076838
H      -1.46323293      1.30572192      1.85392254
H       0.68018970     -0.43773783      2.64224451
H       2.99457943     -0.37956532      3.52150746
H       5.77725743      0.07128398      1.40030471
H       4.50429291      0.17829340     -0.47078856
H       2.20816299      0.12054690     -1.35640707
H      -2.65938658     -0.51836304     -0.89476367
H      -3.73929026     -2.64440188     -1.37256791
