30
C[Si]1O[Si](C)O[Si](C)O[Si](C)O[Si](C)O1
C      -4.00963129      1.48603582      0.95959860
Si     -2.24892080      1.12199497      1.37159099
O      -1.92698793     -0.49306495      1.53468989
Si     -1.76874974     -1.87868818      0.64354302
C      -2.20878510     -1.71590150     -1.13813869
O      -0.29380898     -2.58050728      0.90936460
Si      1.25583005     -2.18301757      1.33862516
C       2.21616877     -3.61142672      2.00261462
O       2.03003508     -1.39095468      0.10711068
Si      1.93442213      0.01823952     -0.75601704
C       3.43337103      0.37366489     -1.76722795
O       1.48856861      1.27144447      0.23277756
Si      0.35332116      2.47366032      0.31708351
C       0.57888111      3.79504032     -0.94976266
O      -1.17325747      1.83246862      0.33247098
H      -4.68802021      1.04534452      1.69652618
H      -4.19599673      2.56417433      0.93953125
H      -4.27879054      1.08445489     -0.02220667
H      -3.23404691     -1.35426323     -1.26352996
H      -2.13379831     -2.67896527     -1.65248906
H      -1.54472993     -1.01460952     -1.65248106
H       1.70651237     -4.06806175      2.85656394
H       2.34992471     -4.38646045      1.24169389
H       3.21003390     -3.29861933      2.33710313
H       3.65520817     -0.45169494     -2.45065572
H       3.29933416      1.27689805     -2.37043449
H       4.31246060      0.52533111     -1.13335649
H      -0.14212090      4.60591571     -0.80776897
H       0.44163107      3.40248913     -1.96205131
H       1.58194191      4.22907870     -0.89476793
