27
CCCCOC(=O)c1ccccc1
C      -4.59529466     -0.54123110      0.72223463
C      -3.70271238     -0.07388406     -0.41624735
C      -2.22776338     -0.31046672     -0.10376451
C      -1.33052218      0.15568180     -1.24629908
O       0.04319396     -0.13036234     -0.93955346
C       0.69814697      0.81963464     -0.22616128
O       0.22366872      1.87230154      0.17059496
C       2.10644413      0.40791693      0.02499715
C       2.62929078     -0.80864900     -0.43530375
C       3.95913282     -1.14597918     -0.17070896
C       4.77163721     -0.27341133      0.55265445
C       4.25893437      0.93816386      1.01391961
C       2.93045515      1.27888051      0.75155460
H      -4.36569420     -0.00267686      1.64722308
H      -5.64694379     -0.36252909      0.47726841
H      -4.46678042     -1.61252217      0.90708169
H      -3.87847214      0.99306141     -0.59628264
H      -3.97977192     -0.60776540     -1.33268143
H      -1.95134372      0.21064636      0.82079626
H      -2.04550962     -1.37541200      0.08727918
H      -1.57107748     -0.39618464     -2.16153572
H      -1.47227589      1.22016921     -1.46856240
H       2.01390641     -1.50384203     -1.00073190
H       4.36109606     -2.09051143     -0.52939360
H       5.80628364     -0.53814860      0.75736111
H       4.89230590      1.61846003      1.57800228
H       2.53966566      2.22714934      1.11625865
