15
NS(=O)(=O)[O-].NS(=O)(=O)[O-].[Ca+2]
N       0.94909769      0.01874377     -0.37863552
S      -0.67097118     -0.13899675      0.02883365
O      -1.22490692     -0.86052087     -1.09988088
O      -0.52660661     -0.87250785      1.27490927
O      -1.01821474      1.26694637      0.14854165
N       0.89274381     -0.31982229     -0.38108319
S      -0.68029391      0.06241118      0.06048885
O      -0.62253555      1.50542387     -0.10063990
O      -0.66442074     -0.43168110      1.42694596
O      -1.47915323     -0.67593127     -0.89769343
Ca      0.00000000      0.00000000      0.00000000
H       1.07724560      1.02671293     -0.37307654
H       1.41435615     -0.44037759      0.39930837
H       1.26246842     -0.73436739      0.46974657
H       1.29119121      0.59396700     -0.57776487
