40
Cc1cccc(C)c1NC(=O)C1CCCCN1C
C      -2.47860475     -2.58502018      0.44841341
C      -2.87138151     -1.13486525      0.52262830
C      -4.23625938     -0.87828309      0.76641921
C      -4.70514953      0.41339340      0.97401199
C      -3.81464787      1.47705077      0.94697282
C      -2.45260585      1.26361902      0.67648238
C      -1.55001032      2.47157606      0.63490252
C      -1.97523063     -0.04982836      0.42071245
N      -0.60091539     -0.16867794      0.11837391
C       0.05977206     -1.09122311     -0.67444443
O      -0.43770063     -2.01387214     -1.31209598
C       1.56706815     -0.76006821     -0.82467038
C       1.68215235      0.20385623     -2.02018755
C       3.10312822      0.70989541     -2.21596613
C       3.62345827      1.31034210     -0.91960388
C       3.50370030      0.30877433      0.22548535
N       2.11340606     -0.14350075      0.42653313
C       2.10364444     -1.12104881      1.53040389
H      -1.47714672     -2.75292574      0.85480609
H      -3.14798913     -3.19788280      1.06428406
H      -2.55055206     -2.95133763     -0.57917345
H      -4.94331963     -1.70445038      0.82050680
H      -5.75938915      0.58598483      1.17202973
H      -4.19166310      2.48147861      1.12644834
H      -0.79278079      2.40634974      1.42284509
H      -2.10847937      3.40031231      0.79443735
H      -1.06229164      2.55094133     -0.34218621
H       0.00269979      0.60409290      0.38196943
H       2.10186662     -1.69377257     -1.04403984
H       1.34612646     -0.29889499     -2.93566959
H       1.01293173      1.06399312     -1.88222851
H       3.12881970      1.45918238     -3.01473299
H       3.75069802     -0.11831982     -2.52834585
H       3.05950118      2.22017793     -0.67836324
H       4.67124615      1.60619805     -1.04419509
H       3.86439496      0.79555868      1.14001961
H       4.16585878     -0.54537440      0.02928954
H       2.50017770     -0.66375910      2.44421411
H       1.08928619     -1.45215872      1.77314755
H       2.70618034     -2.00751321      1.30056604
