30
CCCCC(O)CCCC
C      -4.44746290     -0.52951325     -1.35987692
C      -2.99587586     -0.71412660     -0.94413933
C      -2.74918560     -0.18386647      0.46833742
C      -1.33186134     -0.46066504      0.98541319
C      -0.20287534      0.18851498      0.17283690
O      -0.36950707      1.60329889      0.15502027
C       1.16279474     -0.13428974      0.79484488
C       2.32366060      0.42775033     -0.03355515
C       3.67349812      0.06223589      0.58453646
C       4.82912803      0.61584591     -0.23376101
H      -5.12054781     -1.07076244     -0.68731974
H      -4.72698749      0.52883265     -1.34814396
H      -4.60251163     -0.91084351     -2.37402939
H      -2.74064789     -1.77890622     -0.99295901
H      -2.35778049     -0.19100420     -1.66417984
H      -2.95958008      0.89145161      0.50422154
H      -3.45868222     -0.65897778      1.15776160
H      -1.28588007     -0.08884152      2.01733838
H      -1.17361135     -1.54529051      1.02944707
H      -0.21545121     -0.17144547     -0.86163387
H      -1.13721035      1.80357697     -0.40631350
H       1.27640191     -1.22116232      0.88784084
H       1.21643055      0.29201916      1.80470329
H       2.26929994      0.03254739     -1.05522898
H       2.23970107      1.51872949     -0.10384983
H       3.73450719      0.45648314      1.60558137
H       3.77002843     -1.02769408      0.65101074
H       4.78057646      1.70787404     -0.29250253
H       5.78411989      0.34254618      0.22581089
H       4.81551178      0.21568254     -1.25259126
