22
Clc1cccc(-c2ccccc2)c1Cl
Cl     -3.87699957      0.41524956     -2.52948741
C      -2.88499446      0.14735160     -1.13638775
C      -3.54050611     -0.13473882      0.06592450
C      -2.80587674     -0.36184072      1.22596483
C      -1.41310864     -0.30650695      1.18583831
C      -0.72782726     -0.02335510     -0.01166696
C       0.74119269      0.02136678      0.01791577
C       1.41880778      1.23965908      0.18006213
C       2.81431118      1.27966631      0.21845106
C       3.54936778      0.10218730      0.09780676
C       2.89122661     -1.11552878     -0.06141847
C       1.49572019     -1.15612244     -0.09993518
C      -1.48177679      0.20445762     -1.18396456
Cl     -0.66947381      0.54824195     -2.68299439
H      -4.62662314     -0.17891340      0.10290526
H      -3.31551961     -0.58117221      2.16138264
H      -0.85039113     -0.48436906      2.10205432
H       0.85960038      2.16839299      0.27261430
H       3.32655159      2.23065398      0.33914834
H       4.63550531      0.13404111      0.12442229
H       3.46368424     -2.03423750     -0.15936994
H       0.99712952     -2.11448330     -0.22926586
