37
CCOP(=O)(OCC)SCC(=O)NC(C)(C)C#N
C      -4.29615573      2.88465847      0.50329476
C      -3.37066115      1.81388552      1.04357141
O      -2.05137702      2.09804213      0.60979745
P      -0.95021974      0.91569977      0.64516256
O       0.40133094      1.40770155      0.19403264
O      -1.57524347     -0.16394131     -0.37576519
C      -1.57131908      0.16144047     -1.75543916
C      -2.38531887     -0.87532209     -2.50090779
S      -0.80646242      0.09751121      2.55054893
C       0.96957983     -0.12573507      2.79176303
C       1.55409829     -1.08482758      1.76681919
O       1.43076417     -2.30092435      1.86298091
N       2.24304855     -0.46969301      0.74223418
C       2.84270827     -1.20681008     -0.38496418
C       3.86246155     -2.25373514      0.09484680
C       3.59612079     -0.18230548     -1.25667627
C       1.80695735     -1.85776468     -1.23058864
N       1.01350885     -2.33497818     -1.93262883
H      -5.32661380      2.70828529      0.82408513
H      -3.98319366      3.87572348      0.84813873
H      -4.26495513      2.90352642     -0.59118366
H      -3.69049378      0.83085545      0.68484680
H      -3.39515291      1.81652613      2.13727145
H      -0.54093246      0.17423791     -2.12207825
H      -2.00807319      1.15413326     -1.90369566
H      -2.39517394     -0.66608464     -3.57417206
H      -1.97841943     -1.87864523     -2.33933336
H      -3.41727058     -0.88906489     -2.13460801
H       1.47298885      0.84491498      2.74314810
H       1.15457628     -0.53734035      3.78901116
H       1.89916639      0.46681498      0.51067549
H       4.60378305     -1.80330502      0.76494667
H       3.39059237     -3.08167794      0.63371079
H       4.40015215     -2.70005408     -0.75065342
H       4.07417647     -0.66006762     -2.12019020
H       4.37431446      0.33107820     -0.67963251
H       2.91670774      0.58724151     -1.64411957
