51
O=S(=O)(NCC(c1ccccc1)N1CCCCCC1)c1ccc(Cl)cc1Cl
O       3.63928100     -2.54710340      0.08571847
S       3.02044212     -1.53724712     -0.74087678
O       3.21288962     -1.52529181     -2.17602359
N       1.37578686     -1.57578081     -0.45280566
C       0.44848925     -1.14772862     -1.51827691
C      -0.98860569     -0.82555073     -0.97393460
C      -1.63307340     -2.16624225     -0.58191781
C      -2.36866375     -2.89269274     -1.53292851
C      -2.93289488     -4.12659750     -1.20333320
C      -2.76889405     -4.65123178      0.07718498
C      -2.04253828     -3.94336539      1.03189181
C      -1.47735932     -2.71030038      0.70547408
N      -1.09927507      0.20678372      0.11602505
C      -0.32245846      1.42276598     -0.17729142
C      -0.03671669      2.25822011      1.07306428
C      -1.08019565      3.31254074      1.41586917
C      -2.53481009      2.91250501      1.22570339
C      -2.83165261      1.45268174      1.53656232
C      -2.52741440      0.51267488      0.36398240
C       3.49129954      0.04732256     -0.10478299
C       4.04247915      0.98312023     -0.99509534
C       4.43466379      2.24068027     -0.53418973
C       4.28125678      2.55961083      0.81228974
Cl      4.75580982      4.11200231      1.37993656
C       3.74048627      1.63297078      1.70191710
C       3.34068785      0.36995667      1.24750993
Cl      2.65690788     -0.68908366      2.42777758
H       1.09111745     -2.37643887      0.11221827
H       0.84757086     -0.27291711     -2.04216249
H       0.38621029     -1.95671874     -2.25735130
H      -1.54694560     -0.43407247     -1.83747690
H      -2.50653291     -2.50452089     -2.53956146
H      -3.50027266     -4.68073587     -1.94679010
H      -3.20896477     -5.61180934      0.33213383
H      -1.91784436     -4.34891728      2.03266246
H      -0.92252892     -2.16200706      1.46572295
H       0.66931060      1.15039618     -0.54334200
H      -0.78568916      2.02252078     -0.97047615
H       0.11723608      1.59620457      1.93531874
H       0.91945015      2.77948011      0.93588895
H      -0.89253885      4.21335700      0.81770569
H      -0.92477591      3.61455795      2.45960052
H      -3.14803537      3.54912191      1.87593281
H      -2.84922123      3.14540029      0.20067053
H      -2.31881565      1.12416707      2.44829041
H      -3.90644539      1.37153767      1.74608403
H      -2.99315601      0.90884863     -0.54865364
H      -3.06451535     -0.41271075      0.59906698
H       4.17449077      0.74082204     -2.04853467
H       4.86102342      2.96204181     -1.22762915
H       3.62394495      1.89677274      2.75082773
