27
C=C1C(O)CC2CC1C2(C)C
C       1.96681840      1.84197964      0.27945730
C       1.34798567      0.66937349      0.07754099
C       1.60464767     -0.24946862     -1.09868058
O       2.72478364     -1.07473590     -0.77896750
C       0.40219230     -1.16812419     -1.42360387
C      -0.57758595     -1.25988627     -0.23487522
C       0.18882496     -1.32588031      1.12197661
C       0.24727469      0.23784100      1.00841742
C      -1.16002234      0.12607938      0.27854584
C      -1.50037887      1.17942191     -0.78371173
C      -2.36984504      0.01159987      1.22627000
H       2.73668146      2.19672016     -0.39934340
H       1.71925736      2.48144271      1.12170186
H       1.87665837      0.32059680     -1.99403964
H       3.37568808     -0.50895505     -0.33058989
H      -0.13577635     -0.78469400     -2.29829186
H       0.75177934     -2.17466428     -1.68366926
H      -1.32641704     -2.04470752     -0.38539943
H       1.14069360     -1.86609272      1.12934804
H      -0.38765588     -1.71100511      1.96996645
H       0.24432979      0.76169305      1.97009162
H      -2.39136252      0.88202849     -1.34796732
H      -1.70687228      2.14735799     -0.31333837
H      -0.70167036      1.34209699     -1.51129453
H      -2.23007125     -0.71912244      2.02667659
H      -3.26535249     -0.28727188      0.66999958
H      -2.57460495      0.97637683      1.70378030
