28
COC(=O)C(N)Cc1ccc(O)c(O)c1
C       4.52552313      1.18242341     -0.04830030
O       3.13039003      0.87929640     -0.10190727
C       2.85655132     -0.43026811     -0.36987330
O       3.71034569     -1.27899960     -0.60514778
C       1.33586920     -0.67267929     -0.45223471
N       1.06610712     -2.13176430     -0.48804216
C       0.58841151     -0.01698673      0.72356501
C      -0.91571628     -0.01064497      0.54611941
C      -1.70001418     -1.02691904      1.11895967
C      -3.08512607     -1.04025382      0.94494432
C      -3.68269656     -0.03662774      0.19907706
O      -5.03730973     -0.04932216      0.02767625
C      -2.91898645      0.97715375     -0.37303026
O      -3.57558183      1.93641536     -1.09421441
C      -1.53773438      0.99819567     -0.20806211
H       5.01810051      0.59160950      0.73038007
H       4.63200863      2.24148698      0.20227099
H       4.99201928      1.00841597     -1.02291757
H       1.01025141     -0.24421882     -1.40829406
H       0.12199146     -2.28848622     -0.83968965
H       1.70940885     -2.56568075     -1.15384845
H       0.90839478      1.02378909      0.86076387
H       0.85028032     -0.51655102      1.66645053
H      -1.23109259     -1.81920627      1.70033816
H      -3.69002451     -1.82606766      1.38677891
H      -5.22152163      0.74176079     -0.51655435
H      -2.92090970      2.58738133     -1.39929450
H      -0.93893934      1.78674824     -0.65346232
