38
Cc1ccc(Sc2ccc(C(=O)c3ccccc3)cc2)cc1
C       6.17010422     -1.77214262     -0.22353280
C       5.10342002     -0.86991759      0.32277452
C       4.78894908     -0.88778412      1.68626297
C       3.81769728     -0.02418909      2.20071724
C       3.15066813      0.87120754      1.36015484
S       1.92154987      1.96647848      2.04867163
C       0.49673019      1.60032636      1.03946563
C      -0.00678701      0.29804932      0.93663519
C      -1.12909810      0.03188591      0.14590653
C      -1.76771981      1.07549134     -0.53278345
C      -2.95165493      0.83637838     -1.39606187
O      -3.08267899      1.49412909     -2.42519750
C      -3.97726583     -0.17848953     -1.04568203
C      -4.61363211     -0.86890457     -2.08382090
C      -5.58998352     -1.82283883     -1.79372317
C      -5.94144680     -2.07962840     -0.46865820
C      -5.32519176     -1.37804221      0.56791909
C      -4.34743749     -0.42263427      0.28257369
C      -1.26107666      2.37637156     -0.44087545
C      -0.13929655      2.63811062      0.35058512
C       3.48220968      0.90893183      0.00247392
C       4.45274919      0.04504381     -0.51252753
H       7.14466509     -1.27795599     -0.16422078
H       6.21377405     -2.71050357      0.33930373
H       5.96630112     -2.02970823     -1.26820513
H       5.29986176     -1.57310971      2.35903642
H       3.58969234     -0.05643248      3.26346545
H       0.47689915     -0.52220111      1.46282486
H      -1.47881401     -0.99360820      0.05787551
H      -4.35000874     -0.66308438     -3.11943614
H      -6.08045685     -2.35985392     -2.60186078
H      -6.70597994     -2.81979546     -0.24442571
H      -5.61480126     -1.56886171      1.59854622
H      -3.89992680      0.13342006      1.10218925
H      -1.73906575      3.18907775     -0.98479453
H       0.23646915      3.65686448      0.41682818
H       2.99254957      1.61188973     -0.66713634
H       4.69803303      0.09409010     -1.57126769
