59
CN(C)c1ccc([C+](c2ccc(N(C)C)cc2)c2ccc(N(C)C)cc2)cc1.[Cl-]
C       6.61396423     -0.05198188      0.33093912
N       5.69466103     -0.69196407     -0.60796685
C       6.17452615     -1.93266058     -1.21420808
C       4.31578102     -0.51571192     -0.43553274
C       3.78629781      0.46875828      0.41694906
C       2.40501678      0.65878578      0.58057900
C       1.48975189     -0.12797867     -0.11844059
C       0.01155353      0.07155307      0.05003100
C      -0.89343406     -1.11667949      0.19611753
C      -2.09388055     -1.19519956     -0.50931150
C      -2.93648090     -2.30889858     -0.36744968
C      -2.61898299     -3.39278873      0.47015456
N      -3.47412280     -4.49251818      0.61812181
C      -2.98864406     -5.68049917      1.31735727
C      -4.48671447     -4.73537036     -0.40839356
C      -1.41209426     -3.27860547      1.18209625
C      -0.56117136     -2.17026575      1.04739809
C      -0.56247764      1.45819602      0.07413046
C      -0.14857561      2.42285154     -0.84408970
C      -0.68815357      3.71851557     -0.81501016
C      -1.66692195      4.10670088      0.11650365
N      -2.19008402      5.40551481      0.15126154
C      -1.98270620      6.28279002     -0.99921041
C      -3.40213279      5.65824462      0.92812524
C      -2.05342735      3.11941762      1.03981485
C      -1.52065341      1.82081280      1.02041410
C       1.98772838     -1.10110870     -0.98463821
C       3.37105091     -1.28282673     -1.13966329
Cl      0.00000000      0.00000000      0.00000000
H       7.65728639     -0.26598983      0.07239857
H       6.51663604      1.03852954      0.30089906
H       6.44634761     -0.40991375      1.35275948
H       5.85244248     -2.80512143     -0.63489936
H       7.26917964     -1.95478214     -1.26186669
H       5.82833131     -2.02835762     -2.24886286
H       4.43621126      1.12578345      0.98627831
H       2.05973581      1.43109311      1.26458474
H      -2.39295338     -0.39292850     -1.18024611
H      -3.86115208     -2.29338603     -0.93576957
H      -2.12936684     -6.11970807      0.79865075
H      -2.71628558     -5.44860905      2.35261638
H      -3.76721643     -6.44932260      1.37879319
H      -5.21983206     -3.92283248     -0.44297309
H      -4.02624328     -4.85954240     -1.39467970
H      -5.05899405     -5.64543333     -0.19536604
H      -1.09201201     -4.05399799      1.87088096
H       0.35882931     -2.14130733      1.62705322
H       0.59826545      2.18273321     -1.59788712
H      -0.30868308      4.41799642     -1.55322691
H      -0.91761930      6.48011099     -1.16183884
H      -2.42156950      5.85283900     -1.90655750
H      -2.44690697      7.26272350     -0.84016866
H      -3.23567064      5.46862216      1.99413933
H      -3.70942812      6.70766351      0.85536535
H      -4.23638699      5.04472492      0.56974642
H      -2.78477331      3.33153276      1.81319562
H      -1.86102583      1.10344308      1.76379405
H       1.30913178     -1.72564197     -1.56126984
H       3.68404867     -2.04800432     -1.84302021
