33
COc1ccc(O)c(C(=O)C=Cc2ccccc2)c1
C      -1.08843486     -1.60803695      4.42898521
O      -1.10775096     -0.99496472      3.14520593
C      -0.95200038     -1.81792010      2.06375513
C      -0.74366794     -3.19705533      2.10672571
C      -0.61658519     -3.92362349      0.92003310
C      -0.68688194     -3.27194215     -0.30788496
O      -0.58537581     -4.06162510     -1.42198253
C      -0.85623615     -1.88271776     -0.36764459
C      -0.91076323     -1.21446291     -1.69120485
O      -1.29168694     -1.85708698     -2.66958216
C      -0.50216793      0.20126214     -1.86931876
C       0.53018532      0.76422882     -1.22299989
C       0.95320352      2.15602583     -1.42879578
C       0.98573292      2.74939017     -2.69757912
C       1.42029878      4.06827834     -2.85331002
C       1.83568481      4.80268946     -1.74462656
C       1.82284519      4.21791633     -0.48029329
C       1.38922139      2.89908796     -0.32390081
C      -1.01487152     -1.16686658      0.82645098
H      -0.11786234     -2.07411965      4.62825244
H      -1.90433500     -2.33079151      4.53397103
H      -1.24053614     -0.82320827      5.17618504
H      -0.68596964     -3.74113054      3.04378435
H      -0.47230075     -5.00068901      0.95181630
H      -0.84920924     -3.51969723     -2.19979776
H      -1.06244695      0.73026611     -2.63368686
H       1.11497922      0.20607984     -0.49557474
H       0.68635953      2.19111576     -3.58143786
H       1.43978776      4.51928984     -3.84220562
H       2.17465663      5.82816494     -1.86696151
H       2.15198059      4.78722554      0.38519167
H       1.38805205      2.46125303      0.67201217
H      -1.20390479     -0.09633580      0.81641859
