12
FC(F)OC(F)(F)C(F)Cl
F       2.31883264      1.82475827      0.34838550
C       1.76714961      0.59558077      0.19961534
F       2.40253092      0.01226774     -0.84283759
O       0.42849077      0.79514202     -0.17062455
C      -0.30671018     -0.37893215      0.10341633
F      -0.26498041     -0.59777710      1.44141521
F       0.32787098     -1.42374006     -0.48695939
C      -1.75026859     -0.29234996     -0.40669188
F      -2.40058056     -1.47054544     -0.18811969
Cl     -2.67752325      1.00844552      0.39235839
H       1.92237577      0.02267734      1.11977675
H      -1.76718770     -0.09552696     -1.48246165
