21
NC(N)=Nc1nc2ccccc2s1
N      -4.19854954     -0.30750666     -1.35166041
C      -2.96052779     -0.16233424     -0.81822822
N      -3.06110322      0.48856038      0.36795717
N      -1.92819547     -0.63034711     -1.43145145
C      -0.70151754     -0.45190996     -0.87466056
N      -0.36553925      0.34072401      0.12661889
C       0.98992844      0.24712582      0.39060160
C       1.68564941      0.95038421      1.39562950
C       3.06249750      0.75976344      1.55300444
C       3.75069691     -0.11964540      0.72348401
C       3.08325656     -0.82802866     -0.28041632
C       1.70030259     -0.62828496     -0.42845575
S       0.61632903     -1.34066790     -1.55338120
H      -4.18108658     -0.96104287     -2.12824770
H      -4.88055603     -0.58712199     -0.65658820
H      -3.65953927      1.30327940      0.30518375
H      -2.13656978      0.76030063      0.71204689
H       1.14651819      1.63621253      2.04139054
H       3.59552107      1.30388835      2.32927550
H       4.82175728     -0.25930690      0.85549935
H       3.62072749     -1.51404211     -0.92819317
