52
COc1cc([C@@H]2c3cc4c(cc3[C@H](O)[C@H]3COC(=O)[C@@H]23)OCO4)cc(OC)c1OC
C       4.80357830      1.71452223      0.78817980
O       4.60529020      0.38223133      0.33565085
C       3.31767580     -0.01500109      0.08182133
C       2.18512601      0.78248338      0.26263759
C       0.89917635      0.28555152     -0.01848853
C      -0.31732328      1.19534544      0.17195968
C      -1.44365801      0.52070276      0.95453503
C      -1.20860636      0.14508717      2.29353347
C      -2.22539976     -0.46251695      2.99670402
C      -3.44889869     -0.70644457      2.42736857
C      -3.72543579     -0.35371595      1.12504517
C      -2.71500195      0.27687588      0.37518260
C      -2.98696687      0.65211508     -1.05678909
O      -2.62165804     -0.45045320     -1.88305340
C      -2.19783885      1.86604065     -1.50807602
C      -2.62249356      3.17212758     -0.87930229
O      -1.49253293      4.02960357     -1.03710416
C      -0.36665868      3.26877252     -1.17671958
O       0.76230110      3.72981115     -1.22915129
C      -0.71351150      1.80260446     -1.19181158
O      -4.30961036     -1.31655382      3.28435538
C      -3.48336913     -1.42893835      4.46312184
O      -2.15898769     -0.88518766      4.28660904
C       0.76249645     -1.02641355     -0.50759774
C       1.88054552     -1.84373880     -0.68931450
O       1.84104016     -3.13479089     -1.14959124
C       0.56267005     -3.71634887     -1.36084681
C       3.15371747     -1.32351566     -0.40277145
O       4.25948145     -2.13554054     -0.54103291
C       4.79974651     -1.99309106     -1.85335617
H       4.46004508      2.44062627      0.04408888
H       5.87888037      1.86389299      0.92515812
H       4.31948313      1.87871461      1.75634217
H       2.27815344      1.80503909      0.61748627
H       0.00054341      2.01580612      0.83438791
H      -0.24775900      0.31694784      2.77059237
H      -4.70406462     -0.56210359      0.70390799
H      -4.05707380      0.83904954     -1.20594818
H      -2.89657651     -1.26542063     -1.42699481
H      -2.29574580      1.96813910     -2.59953414
H      -3.48174461      3.60816981     -1.39808161
H      -2.85935623      3.10367738      0.18724715
H      -0.18721799      1.33762186     -2.03450060
H      -3.97408694     -0.89779037      5.28683297
H      -3.39535041     -2.48837071      4.72990962
H      -0.23212601     -1.39021002     -0.74273189
H      -0.02593592     -3.72920093     -0.43736018
H       0.71478389     -4.75431679     -1.67186625
H       0.02571881     -3.20421687     -2.16601065
H       4.08182339     -2.31016948     -2.61788259
H       5.12559567     -0.96470078     -2.04388177
H       5.67711673     -2.64280821     -1.92573838
