30
CNC(=O)Oc1ccccc1OC(C)C
C       3.24296099     -2.33612483      1.33245735
N       2.94939064     -1.33497097      0.34509796
C       2.09167956     -0.30006881      0.60535632
O       1.62474157     -0.05053458      1.70912792
O       1.85388968      0.39256494     -0.56845134
C       0.87401286      1.37922038     -0.42479012
C       1.28900994      2.70283296     -0.27665186
C       0.33020382      3.70834274     -0.17383711
C      -1.02710695      3.38673139     -0.24068134
C      -1.43318933      2.05797656     -0.40798873
C      -0.48203497      1.04007690     -0.48965649
O      -0.79674681     -0.27410337     -0.70809040
C      -1.88135444     -0.79080738      0.07582440
C      -1.38665549     -2.06768495      0.75008503
C      -3.04745158     -1.10516013     -0.85562129
H       3.38815992     -1.87351058      2.31237262
H       4.14895162     -2.86707769      1.03186011
H       2.40359701     -3.03486727      1.38242671
H       3.11664735     -1.52172731     -0.63375823
H       2.34617521      2.94548414     -0.23635317
H       0.63881052      4.74302936     -0.04908482
H      -1.77313577      4.17494686     -0.17325445
H      -2.49319633      1.84279125     -0.49129663
H      -2.20316991     -0.09683610      0.86252780
H      -1.01451261     -2.78584228      0.01094199
H      -0.55047943     -1.84586329      1.42100458
H      -2.18104929     -2.54267343      1.33389707
H      -3.39391004     -0.20147352     -1.36677760
H      -3.88950662     -1.53543652     -0.30483749
H      -2.74473113     -1.80923449     -1.63883260
