9
c1cn[nH]c1
C       0.68859293      0.74560091     -0.10485570
C       1.05486148     -0.58507110      0.16763216
N      -0.00163592     -1.39856819      0.23689642
N      -1.04534360     -0.58411549      0.00782767
C      -0.68176281      0.71426762     -0.20325066
H       1.33380037      1.60532162     -0.21387888
H       2.04524944     -0.99524363      0.31831958
H      -1.97788922     -0.98420286      0.01050577
H      -1.41587267      1.48201111     -0.40020033
