30
COc1ccc(C(=O)c2coc(S(N)(=O)=O)c2)cc1
C      -5.03406100      1.60174496      0.71959332
O      -4.63628514      0.99162964     -0.50192941
C      -3.44195567      0.32659714     -0.50421282
C      -2.57783849      0.18674084      0.58341159
C      -1.37834848     -0.52235984      0.44421912
C      -1.03289587     -1.08329135     -0.79094079
C       0.22195794     -1.85421827     -0.97461233
O       0.17601089     -2.91034596     -1.59941152
C       1.46857324     -1.33581282     -0.43165439
C       2.62050216     -2.08312415     -0.31108392
O       3.62982435     -1.35025447      0.21465918
C       3.15858223     -0.07344269      0.43598713
S       4.20510978      1.19980793      1.12047846
N       5.75412033      0.98946274      0.50898285
O       3.70987957      2.45023414      0.59440390
O       4.28096134      0.92491013      2.53582620
C       1.82748402     -0.03936157      0.03481432
C      -1.90850044     -0.96597876     -1.87412032
C      -3.10272590     -0.25657403     -1.72856625
H      -5.17209720      0.85376133      1.50729633
H      -5.99887654      2.08969444      0.55097221
H      -4.31976679      2.37285769      1.02654686
H      -2.81158819      0.60895693      1.55565590
H      -0.73653538     -0.64446418      1.31346609
H       2.86072604     -3.11210396     -0.54698281
H       6.32088701      0.47631643      1.18507671
H       6.15301026      1.89563832      0.26416121
H       1.20945774      0.84843186      0.07472825
H      -1.66675707     -1.42372915     -2.83120001
H      -3.77885476     -0.16172330     -2.57556507
