19
CCC1C(=O)NC(=O)NC1=O
C      -2.08284900     -0.29760707      0.92093580
C      -1.61274180     -0.56325752     -0.50554867
C      -0.12917584     -0.24549089     -0.74448066
C       0.18276331      1.22340191     -0.59217916
O      -0.63864346      2.11821594     -0.77440743
N       1.47968662      1.52977735     -0.28975648
C       2.36331465      0.67970871      0.29699963
O       3.37359873      1.09207875      0.85688824
N       2.03931358     -0.64041165      0.29882247
C       0.79219015     -1.13990617      0.04877460
O       0.49376235     -2.27316217      0.41657911
H      -3.14505838     -0.54604680      1.01485540
H      -1.96222149      0.75438197      1.19559067
H      -1.53408976     -0.90588331      1.64587093
H      -2.23079279      0.02960549     -1.19114077
H      -1.80637619     -1.61624834     -0.74476850
H       0.08267957     -0.47677814     -1.79871195
H       1.68386143      2.51362414     -0.17591257
H       2.65077830     -1.23600218      0.84102637
