19
CCC1(C)OC(=O)NC1=O
C      -1.64929226     -1.10769324      0.88990312
C      -1.42044627     -0.01925714     -0.15367851
C       0.05521907      0.28511409     -0.42870088
C       0.22595139      1.28665093     -1.56693152
O       0.77274875     -0.91608906     -0.76466400
C       1.84475000     -1.03849630      0.06815429
O       2.62131222     -1.97766989      0.05221943
N       1.89739258     -0.00178732      0.91878526
C       0.79583652      0.76693432      0.79793587
O       0.47172939      1.67141772      1.54852778
H      -1.19973889     -2.05675411      0.58208141
H      -2.72281133     -1.27575607      1.02437386
H      -1.23206376     -0.82534601      1.86115786
H      -1.89755772     -0.35317780     -1.08369381
H      -1.93843644      0.89264830      0.16725310
H      -0.27120555      2.23630490     -1.34301307
H      -0.18371142      0.88709289     -2.50120763
H       1.28539794      1.49736597     -1.75454447
H       2.54492576      0.04849782      1.68604189
