36
O=c1n(CC2CO2)c(=O)n(CC2CO2)c(=O)n1CC1CO1
O      -1.69727454      0.63362638     -1.86416985
C      -0.76541769      0.37419814     -1.09898978
N      -0.21046448     -0.88412413     -1.02266388
C      -0.73410909     -1.92739516     -1.89968607
C      -1.83635636     -2.68250998     -1.22181945
C      -3.27988053     -2.27282438     -1.35931531
O      -2.72834681     -3.35736767     -2.12051348
C       0.76043328     -1.23164159     -0.10786099
O       1.18971527     -2.38462012     -0.02902732
N       1.22349620     -0.22366860      0.70844434
C       2.26259548     -0.54086744      1.68382805
C       3.62308426     -0.32923966      1.09302846
C       4.37523539     -1.44593991      0.41604702
O       4.67387051     -1.04285403      1.76056987
C       0.80250726      1.08610743      0.61378730
O       1.33740866      1.98529778      1.26596079
N      -0.22364033      1.33302326     -0.27216083
C      -0.79392108      2.67448432     -0.31550528
C      -2.07976367      2.72900014      0.45684651
C      -2.25472867      3.66318378      1.62756804
O      -1.99675567      2.26575658      1.81405973
H       0.06978267     -2.62507095     -2.16145900
H      -1.08360360     -1.48176948     -2.83865480
H      -1.51734337     -3.22454977     -0.34143340
H      -3.52371688     -1.36195854     -1.89225226
H      -3.96279773     -2.52214449     -0.55688443
H       2.14197028     -1.57419490      2.03034545
H       2.14977457      0.10260413      2.56408327
H       3.82313931      0.69674394      0.81421411
H       3.88968568     -2.40451476      0.27873215
H       5.09351453     -1.19012022     -0.35259290
H      -0.08098885      3.41104193      0.07047015
H      -0.99194586      2.94838679     -1.35862948
H      -2.94470593      2.43009304     -0.12057380
H      -1.45919814      4.35304411      1.88092380
H      -3.25125409      4.02078405      1.85528331
