42
Clc1ccccc1C(c1ccccc1)(c1ccccc1)n1ccnc1
Cl     -0.55896066      0.59666241     -2.93065813
C      -1.39603605     -0.57576657     -1.96960858
C      -2.44643611     -1.23247064     -2.63259637
C      -3.23981078     -2.16100124     -1.96927697
C      -3.00179785     -2.42253326     -0.62971368
C      -1.95735677     -1.77384763      0.03777680
C      -1.08770443     -0.86198118     -0.61557533
C       0.06468053     -0.12085231      0.18123145
C      -0.47626227      1.34804797      0.39538235
C      -1.63679353      1.56510115      1.17798059
C      -2.17136661      2.84297715      1.36232862
C      -1.57656125      3.93986587      0.75131559
C      -0.45788727      3.75630955     -0.05364437
C       0.07833126      2.47715049     -0.23793627
C       1.48749266     -0.22515188     -0.48774567
C       2.56344229      0.55583615     -0.00480576
C       3.85255561      0.43437514     -0.52999984
C       4.11163990     -0.49492721     -1.53018954
C       3.08797109     -1.31646481     -1.98894882
C       1.79769658     -1.19688761     -1.46227067
N       0.31171114     -0.77642128      1.51894457
C       0.44370924     -0.18917387      2.75915013
C       0.72852922     -1.21189484      3.63184958
N       0.84117851     -2.39898823      2.96740750
C       0.65363924     -2.10310592      1.70211008
H      -2.65966285     -1.00875843     -3.67619943
H      -4.05303420     -2.65911846     -2.49058183
H      -3.63551008     -3.12406622     -0.09086397
H      -1.86352893     -1.99390156      1.10023422
H      -2.14178512      0.73061017      1.66274623
H      -3.05715943      2.97736452      1.97808903
H      -1.99302788      4.93421162      0.88816336
H      -0.00540009      4.60826350     -0.55568693
H       0.92448990      2.38994614     -0.91577777
H       2.41121634      1.26585197      0.80736828
H       4.65623494      1.05688104     -0.14472008
H       5.11464476     -0.59425118     -1.93644410
H       3.29417164     -2.06385194     -2.75137093
H       1.04721644     -1.89318319     -1.82895694
H       0.33384978      0.87255396      2.92836118
H       0.87929389     -1.14825248      4.70175444
H       0.73238719     -2.80515683      0.88137798
