25
C[N+](C)(C)c1ccccc1.[Cl-]
C      -1.29438924     -0.06370954      1.83412373
N      -1.09944284     -0.01383611      0.32212269
C      -1.75370396     -1.25487017     -0.27641623
C      -1.76133661      1.25954824     -0.19446216
C       0.36817542      0.00352217     -0.07375208
C       0.71390656      0.04897205     -1.43604586
C       2.05224693      0.06618719     -1.83958395
C       3.06582889      0.03826791     -0.88859028
C       2.74268190     -0.00679143      0.46380132
C       1.40330804     -0.02412489      0.87089871
Cl      0.00000000      0.00000000      0.00000000
H      -2.37019789     -0.07369026      2.04008519
H      -0.84551744     -0.98262974      2.22462784
H      -0.85102430      0.83053844      2.28372597
H      -1.73929145     -1.18937595     -1.36790661
H      -2.79270364     -1.29160848      0.06661221
H      -1.21048624     -2.13998509      0.07002966
H      -2.80047384      1.26756884      0.15002285
H      -1.74673915      1.26535962     -1.28789760
H      -1.22343002      2.12350319      0.20899607
H      -0.03946714      0.07217500     -2.21811496
H       2.30587956      0.10145131     -2.89790502
H       4.10897789      0.05160954     -1.20079194
H       3.53949635     -0.02856827      1.20610119
H       1.22770222     -0.05951359      1.94031926
