24
Oc1ccc(-c2ccccc2)cc1O
O       4.48716637      0.04013879     -0.76451585
C       3.13425743      0.04811747     -0.58263748
C       2.31853328      0.54170771     -1.58702964
C       0.93372104      0.54968283     -1.39733400
C       0.35796740      0.06378047     -0.20658106
C      -1.10131740      0.07678149     -0.01616081
C      -1.83392253      1.26996987     -0.12885007
C      -3.21920504      1.28424732      0.05448616
C      -3.89527864      0.10377561      0.35219244
C      -3.18789061     -1.09029412      0.46656371
C      -1.80238893     -1.10292384      0.28426621
C       1.21069185     -0.43247534      0.79718886
C       2.58883466     -0.43528032      0.60238241
O       3.45238057     -0.90395951      1.55460869
H       4.84184876     -0.34468817      0.06154594
H       2.75227613      0.91482420     -2.50953573
H       0.29809261      0.92979386     -2.19510350
H      -1.32367313      2.20504833     -0.35200837
H      -3.76802892      2.21820375     -0.03445253
H      -4.97291464      0.11422364      0.49308221
H      -3.71357873     -2.01417076      0.69337353
H      -1.27096457     -2.04905943      0.36447820
H       0.78501611     -0.80057382      1.72626401
H       2.92837693     -1.18687003      2.32377667
