27
Nc1ccc(S(=O)(=O)c2ccc(Cl)cc2)cc1
N       4.30292064      0.26101337     -1.79742334
C       3.27321262     -0.04359972     -0.90102535
C       3.05546211      0.76480139      0.21972493
C       1.95828097      0.54759974      1.05714952
C       1.04424783     -0.45741166      0.73889052
S      -0.36461265     -0.74514798      1.78259252
O      -0.49825976     -2.18429225      1.91756889
O      -0.23398856      0.09743787      2.95734805
C      -1.78172348     -0.14758983      0.88588820
C      -2.71740223     -1.05097114      0.37237424
C      -3.82577232     -0.56661777     -0.32566993
C      -3.99280238      0.80852640     -0.49791798
Cl     -5.35949066      1.39982077     -1.35936525
C      -3.06298247      1.70835496      0.02564442
C      -1.95235207      1.23179081      0.72489323
C       1.22048177     -1.24544794     -0.40007191
C       2.32249948     -1.01639917     -1.22751134
H       5.09795095      0.72681862     -1.37046078
H       4.58643230     -0.51936996     -2.38210751
H       3.74625664      1.57148784      0.45316083
H       1.82543604      1.17046282      1.93876451
H      -2.59747869     -2.12340528      0.51216118
H      -4.55693946     -1.26370013     -0.72795176
H      -3.20164714      2.77906612     -0.10332415
H      -1.23661314      1.93606053      1.14372502
H       0.51096352     -2.02912020     -0.65466555
H       2.43792016     -1.61016821     -2.13108170
