44
CC1(C)S[C@@H]2[C@H](NC(=O)[C@H](N)c3ccc(O)cc3)C(=O)N2[C@H]1C(=O)O
C      -4.75182389     -0.50944545     -1.42516222
C      -3.81680673     -0.57220715     -0.20972524
C      -4.29853791     -1.63559912      0.77976106
S      -2.12677277     -1.05210084     -0.80551508
C      -1.73888163      0.68342562     -1.26739184
C      -0.45524531      1.32491904     -0.68693687
N       0.58226527      0.41381971     -0.16518959
C       1.38922329     -0.32287271     -1.00931150
O       1.37649960     -0.17248792     -2.22859467
C       2.30183579     -1.33382838     -0.27591053
N       1.67877308     -1.72370706      1.01973474
C       3.69845054     -0.77635375     -0.08406829
C       4.72001276     -1.13697765     -0.97794254
C       6.00957133     -0.62252208     -0.83005844
C       6.28508555      0.26062424      0.20558048
O       7.55745553      0.73829966      0.31198082
C       5.29014036      0.64296571      1.09772343
C       3.99965740      0.12777080      0.94986459
C      -1.41420497      1.94493647      0.35344265
O      -1.33319174      2.52273341      1.41105585
N      -2.53060005      1.49688482     -0.30899384
C      -3.56358972      0.78754598      0.46965661
C      -4.82534981      1.63510065      0.63479396
O      -5.86039006      1.22822844      1.14257088
O      -4.69840142      2.90368465      0.17843222
H      -4.77655051     -1.46557397     -1.96162760
H      -5.78174190     -0.29422378     -1.11963250
H      -4.45720576      0.26817893     -2.13850595
H      -3.62574561     -1.72786507      1.64035515
H      -5.29170182     -1.38757526      1.16944145
H      -4.37522292     -2.62154009      0.30630234
H      -1.95855438      0.94159277     -2.30789656
H      -0.01324018      2.09447338     -1.33247965
H       0.61041081      0.11859343      0.81049993
H       2.34171802     -2.24096015     -0.89166328
H       0.85166420     -2.28484610      0.80390751
H       2.32401557     -2.36860355      1.48050276
H       4.51843964     -1.81659945     -1.80369013
H       6.79493578     -0.90586621     -1.52518313
H       7.59500211      1.35334944      1.06254418
H       5.49478645      1.33627868      1.90726966
H       3.22663701      0.43651458      1.65105920
H      -3.16919330      0.64022081      1.48544102
H      -3.78362767      3.07161451     -0.13064259
