30
CC(C)C(=O)Nc1ccc([N+](=O)[O-])c(C(F)(F)F)c1
C       3.82397159     -0.74965508     -0.05837604
C       3.23948216      0.65890070      0.03435662
C       4.02417522      1.48987891      1.04824710
C       1.75248678      0.60122362      0.39994825
O       1.33642881      0.98935779      1.48574984
N       0.97761548      0.07125759     -0.62124595
C      -0.41549980     -0.14447432     -0.62300524
C      -0.97189554     -0.68283680     -1.79046480
C      -2.34180446     -0.93714200     -1.87525054
C      -3.16408763     -0.64788639     -0.77925237
N      -4.58084932     -0.96354327     -0.90431263
O      -5.16519572     -0.53453903     -1.90692014
O      -5.08109487     -1.66415805     -0.01799424
C      -2.64627014     -0.09069661      0.39797215
C      -3.51721859      0.25769764      1.57702904
F      -2.93394609      1.15566291      2.42010297
F      -4.69597892      0.82950394      1.21114282
F      -3.82171836     -0.82079055      2.34354581
C      -1.25610592      0.14453437      0.45934004
H       3.70208409     -1.28984046      0.88713719
H       3.33032722     -1.33921702     -0.83772852
H       4.89218250     -0.71412368     -0.29683615
H       3.32453333      1.14990402     -0.94340961
H       3.98955893      1.04086663      2.04712468
H       3.61147705      2.50176189      1.12471295
H       5.07460494      1.57652161      0.75121606
H       1.46722969     -0.17610907     -1.47253578
H      -0.34687755     -0.91615890     -2.64997007
H      -2.75506965     -1.36237524     -2.78845696
H      -0.85254524      0.56647484      1.37813351
