46
CN1C(=O)c2ccc3c4ccc5c6c(ccc(c7ccc(c2c37)C1=O)c64)C(=O)N(C)C5=O
C       7.14235501     -0.05598062      0.05912346
N       5.69110901     -0.04073194      0.06694891
C       5.05630925      1.14534466     -0.27979104
O       5.65154809      2.17263904     -0.59494378
C       3.57423583      1.13817962     -0.27232111
C       2.89925828      2.31906373     -0.55457894
C       1.50706495      2.33900447     -0.55122446
C       0.72794790      1.18996762     -0.27010664
C      -0.70586489      1.20434782     -0.26525610
C      -1.46363250      2.37008778     -0.53576463
C      -2.85593584      2.37810458     -0.52956937
C      -3.55258937      1.20880993     -0.25176513
C      -2.86273981      0.02785640      0.02370707
C      -3.57423587     -1.13817966      0.30754115
C      -2.89925834     -2.31906346      0.58980010
C      -1.50706499     -2.33900452      0.58644448
C      -0.72794797     -1.18996797      0.30532544
C       0.70586484     -1.20434837      0.30047408
C       1.46363254     -2.37008856      0.57098167
C       2.85593589     -2.37810564      0.56478504
C       3.55258939     -1.20881088      0.28698111
C       2.86273976     -0.02785691      0.01151101
C       1.42711062     -0.01395626      0.01427917
C       5.03426816     -1.24444063      0.28970996
O       5.61017026     -2.31368045      0.47417478
C      -1.42711068      0.01395579      0.02093911
C      -5.05630933     -1.14534459      0.31501236
O      -5.65154768     -2.17263713      0.63017106
N      -5.69110883      0.04073058     -0.03173302
C      -7.14235483      0.05598128     -0.02391014
C      -5.03426810      1.24443896     -0.25449656
O      -5.61017074      2.31367775     -0.43896606
H       7.54587598      0.92152813      0.33937678
H       7.47687852     -0.30049537     -0.95403483
H       7.52991888     -0.80895366      0.75174180
H       3.44775355      3.23281247     -0.77825894
H       1.04734754      3.29672643     -0.78014786
H      -0.98632140      3.31994404     -0.76142923
H      -3.38746424      3.30395263     -0.74427731
H      -3.44775363     -3.23281167      0.81348185
H      -1.04734763     -3.29672639      0.81536837
H       0.98632126     -3.31994477      0.79664619
H       3.38746432     -3.30395395      0.77949180
H      -7.54587928     -0.92153532     -0.30413193
H      -7.52991445      0.80893342     -0.71655433
H      -7.47687942      0.30053160      0.98923954
