50
COc1ccc(OC)c(-c2cccc3c(N)c(C(=O)NC4CCC4)nnc23)c1
C      -3.52731452      2.77867393     -2.64496668
O      -4.19781085      1.54217577     -2.85991221
C      -3.97999032      0.55624819     -1.93907411
C      -4.57331255     -0.66697688     -2.24253439
C      -4.42625442     -1.76468165     -1.39065021
C      -3.67569659     -1.65141020     -0.21675704
O      -3.48582912     -2.67813656      0.67505746
C      -3.73813802     -3.99550195      0.19989027
C      -3.08246843     -0.41472793      0.11507610
C      -2.29456383     -0.23543751      1.35433222
C      -2.97822093     -0.15133982      2.58091747
C      -2.28467063      0.04240378      3.76513991
C      -0.89757531      0.14330713      3.73487531
C      -0.17161987      0.04463167      2.52391215
C       1.24587500      0.12593355      2.47148557
N       1.99590807      0.40117138      3.64597337
C       1.83815146      0.10200979      1.20354852
C       3.32062238      0.18951051      1.00130248
O       4.10090771      0.23357420      1.94861161
N       3.73298519      0.19519331     -0.32064545
C       5.14472635      0.26398642     -0.71016765
C       5.72080166      1.69864769     -0.78637132
C       6.49292746      1.23998997     -2.04106369
C       5.39331586      0.17588475     -2.23576465
N       1.12634063     -0.05860988      0.06681641
N      -0.23170610     -0.18655022      0.14044855
C      -0.88970412     -0.13303054      1.31643897
C      -3.24434538      0.67945279     -0.76105006
H      -3.75506166      3.43410922     -3.49098351
H      -2.44106319      2.64091420     -2.61455077
H      -3.89055874      3.26887117     -1.73590932
H      -5.15643174     -0.76903766     -3.15485609
H      -4.91683510     -2.69085233     -1.66994288
H      -3.19838637     -4.19640113     -0.73226698
H      -4.81266902     -4.16836217      0.08048197
H      -3.37160016     -4.69766151      0.95435337
H      -4.06340415     -0.23535919      2.60414741
H      -2.82041321      0.11652202      4.70807443
H      -0.38394247      0.31289409      4.67822895
H       1.69685856     -0.12145767      4.46217906
H       3.00845052      0.29938623      3.48952657
H       2.99409991      0.12692759     -1.01702151
H       5.77027641     -0.43092559     -0.13701876
H       6.33961479      2.00805380      0.06043301
H       4.97889716      2.48079666     -0.99004955
H       6.58727432      1.97932497     -2.83987536
H       7.48100927      0.81926014     -1.82248684
H       4.55908605      0.51904743     -2.85957528
H       5.73734171     -0.79339942     -2.60583692
H      -2.77588368      1.62095745     -0.49236691
