9
O=C(O)C(Br)=C(Br)I
O      -1.16777065      1.12113301      1.13200876
C      -0.82893088      0.60817522      0.08125646
O      -1.71063829      0.36884134     -0.90665197
C       0.53443237      0.18001323     -0.28828597
Br      1.28949405      1.12192599     -1.72328234
C       1.11638991     -0.81281778      0.41056373
Br      0.28677440     -1.76015203      1.81675600
I       3.04538359     -1.52620453      0.03470049
H      -2.56513449      0.69908556     -0.55706517
