35
CNC1=Nc2ccc(Cl)cc2C(c2ccccc2)=[N+]([O-])C1
C       3.98298922     -1.92940691     -0.23683803
N       3.71877789     -0.55416337     -0.60463292
C       2.61993106      0.14493299     -0.15966520
N       2.09306837      1.00175447     -0.98863668
C       0.95969293      1.75130013     -0.62863684
C       0.96130744      3.09984945     -1.00843055
C      -0.12673338      3.93106030     -0.73410163
C      -1.23842544      3.41318147     -0.07865716
Cl     -2.57900273      4.43448214      0.26547150
C      -1.27344070      2.07352124      0.30111781
C      -0.18066840      1.23677062      0.02229903
C      -0.27069173     -0.18823927      0.44875695
C      -1.53854579     -0.92827910      0.24102849
C      -2.11095543     -0.94923219     -1.03514050
C      -3.32707719     -1.60256138     -1.23835230
C      -3.96976360     -2.22992849     -0.17068933
C      -3.39794110     -2.20742644      1.10188014
C      -2.18250889     -1.55453668      1.31127788
N       0.77611239     -0.78484885      1.00007950
O       0.72618173     -2.00997352      1.36793674
C       2.05738156     -0.09326853      1.21926002
H       3.12537525     -2.56644893     -0.47317269
H       4.21889456     -2.01809541      0.82710089
H       4.84688592     -2.29775419     -0.79845235
H       3.88040788     -0.36688483     -1.59172774
H       1.82724584      3.50334658     -1.52960436
H      -0.09778996      4.97425094     -1.03762750
H      -2.15031181      1.68949238      0.81675047
H      -1.61526116     -0.47057742     -1.87560979
H      -3.77184788     -1.62625126     -2.22985434
H      -4.91486617     -2.74268475     -0.33134870
H      -3.89581899     -2.70357733      1.93098259
H      -1.74330689     -1.54716536      2.30524076
H       1.88276836      0.84010965      1.76177281
H       2.70793684     -0.72274814      1.83022303
