11
N=C(N)N[N+](=O)[O-]
N      -1.43290718     -0.31453885      0.38428819
C      -0.52136515      0.31580930     -0.26698363
N      -0.83468900      1.58024230     -0.65048344
N       0.72307449     -0.04780635     -0.65850960
N       1.29349360     -1.18572895     -0.24007822
O       0.58338168     -2.09146957      0.20247875
O       2.51733950     -1.19954616     -0.37899581
H      -1.09768824     -1.26362631      0.61657745
H      -1.79529661      1.76619349     -0.36174871
H      -0.76955039      1.73123143     -1.65130133
H       1.33420729      0.70923966     -0.91298184
