23
Clc1ccc(Oc2ccccc2Cl)cc1Cl
Cl     -5.11041195      0.50892107     -1.17763268
C      -3.59683189      0.13373627     -0.43415121
C      -2.53406378     -0.22635921     -1.26898325
C      -1.28642203     -0.53750265     -0.72369381
C      -1.09849206     -0.47417641      0.65897927
O       0.09136030     -0.79796473      1.27177270
C       1.24415099     -0.31902532      0.68954643
C       1.44406934      1.05846188      0.54048705
C       2.63366388      1.53290461     -0.01412983
C       3.62885487      0.63675383     -0.40547448
C       3.43989572     -0.73669437     -0.23724940
C       2.25106164     -1.21543726      0.31728445
Cl      2.05395984     -2.91884740      0.50832507
C      -2.16168844     -0.13789864      1.49790663
C      -3.41028667      0.17418664      0.95295477
Cl     -4.67929587      0.60082733      2.04551130
H      -2.67299671     -0.27380276     -2.34666231
H      -0.47699231     -0.83808678     -1.38416346
H       0.68190854      1.76387634      0.86085551
H       2.78794923      2.60288674     -0.13417270
H       4.55661539      1.00833199     -0.83468409
H       4.22404820     -1.42745104     -0.53676928
H      -2.01005624     -0.11764014      2.57422341
