20
Cc1ccc(C=O)cc1C
C      -2.27110828      1.17192324      0.03459447
C      -0.84050576      0.70741586     -0.02030058
C       0.18097743      1.65250747     -0.21395217
C       1.51883860      1.25907824     -0.27025229
C       1.84433248     -0.08932152     -0.13241574
C       3.26112024     -0.50134898     -0.19259663
O       3.60920773     -1.66997904     -0.07826824
C       0.84150015     -1.04293941      0.06081671
C      -0.50701519     -0.65628725      0.11876274
C      -1.56391971     -1.70650787      0.32788233
H      -2.71547801      0.92071869      1.00281705
H      -2.85289225      0.70668765     -0.76734557
H      -2.34652482      2.25733044     -0.09078512
H      -0.06292117      2.70776497     -0.32266634
H       2.28910899      2.01038707     -0.42095371
H       4.00012591      0.30259679     -0.34723057
H       1.11626031     -2.09154602      0.16632694
H      -2.25636535     -1.72299419     -0.51962246
H      -1.12588129     -2.70655960      0.41479935
H      -2.11886000     -1.50892656      1.25038983
