20
CC(C)CCOC=O
C      -1.10587069     -0.29282673      1.73605353
C      -1.14107411     -0.50376399      0.22185936
C      -2.54031571     -0.18785639     -0.31180363
C      -0.09677461      0.35188652     -0.51335154
C       1.34589227      0.01027963     -0.14847568
O       2.21038744      0.79661038     -0.98186013
C       3.53162937      0.57903364     -0.76899622
O       4.02234079     -0.19492480      0.03661895
H      -1.24164866      0.76312520      1.99311356
H      -0.15628648     -0.62904806      2.16316148
H      -1.90138969     -0.86458969      2.22619527
H      -0.93510717     -1.56216968      0.01792883
H      -3.29369414     -0.81712221      0.17391636
H      -2.59714616     -0.37357762     -1.38961365
H      -2.80700630      0.85946665     -0.13326095
H      -0.21901930      0.22764505     -1.59762357
H      -0.27322445      1.41847820     -0.32155978
H       1.53754352     -1.05426901     -0.32637743
H       1.54694176      0.25278698      0.90043483
H       4.11382232      1.22083593     -1.44825459
