13
Oc1c(Br)cc(Br)cc1Br
O       1.64329385      1.90348229      0.11218445
C       0.72682414      0.88761150      0.04549395
C       1.11502462     -0.44337913      0.23267059
Br      2.92521287     -0.88497187      0.58529946
C       0.17463997     -1.47166170      0.16296767
C      -1.15943687     -1.16062502     -0.09561174
Br     -2.43982719     -2.54876326     -0.19158944
C      -1.56096414      0.16130134     -0.28427365
C      -0.61418032      1.18573478     -0.21311712
Br     -1.20029038      2.97074120     -0.47545176
H       2.51621300      1.51278952      0.29827043
H       0.47739074     -2.50547184      0.30856445
H      -2.60390029      0.39321220     -0.48540728
