14
N#Cc1ccccc1O
N       3.34689211     -1.10327334      0.12106340
C       2.22200791     -0.82040058      0.08626856
C       0.84898616     -0.42005453      0.04010695
C      -0.15014576     -1.40203240      0.09184347
C      -1.49810054     -1.03894093      0.04852695
C      -1.85407248      0.30543460     -0.04657876
C      -0.86456419      1.28745684     -0.09845184
C       0.48205884      0.92706236     -0.05533615
O       1.37641722      1.96167206     -0.11207575
H       0.11389923     -2.45564432      0.16616873
H      -2.27041334     -1.80376018      0.08890270
H      -2.90283879      0.59104639     -0.08048938
H      -1.14279919      2.33598957     -0.17263611
H       2.29267284      1.63544446     -0.07731277
