19
Cc1cccc(O)c1C
C      -0.29216455      2.26316918     -0.42520297
C      -0.46960650      0.78812710     -0.18586624
C      -1.76532009      0.24620618     -0.21989071
C      -1.97725783     -1.11386833      0.00055377
C      -0.89728137     -1.95182118      0.25982447
C       0.39331895     -1.42440522      0.28702036
O       1.45282978     -2.24756063      0.55494950
C       0.63348711     -0.06269124      0.04799400
C       2.03638780      0.48224863      0.10255763
H      -1.25304806      2.78889984     -0.41849299
H       0.17742266      2.43333801     -1.39904477
H       0.32353454      2.70984413      0.36208300
H      -2.62286802      0.88695463     -0.41507717
H      -2.98624486     -1.51656356     -0.02511240
H      -1.07855603     -3.00674686      0.43858196
H       1.11922724     -3.14758315      0.69844553
H       2.22460437      0.92754147      1.08442966
H       2.78648066     -0.29461968     -0.07602999
H       2.19505421      1.23953068     -0.67172265
