20
CC(C)CCO[N+](=O)[O-]
C      -2.33792097     -0.99330366      0.44645510
C      -1.17615058      0.00307116      0.43702448
C      -1.54550327      1.21904947     -0.41352429
C       0.10300876     -0.69195268     -0.05749207
C       1.35366491      0.18368923      0.02690304
O       2.47017145     -0.61968038     -0.35065958
N       3.69348096      0.09032576     -0.29748852
O       3.64782311      1.27042221      0.05372645
O       4.65853391     -0.59913273     -0.62152024
H      -2.55009928     -1.36638803     -0.56135152
H      -3.24929002     -0.52534328      0.83362372
H      -2.10866980     -1.85279822      1.08529011
H      -1.01610010      0.34164954      1.46850926
H      -0.78691698      2.00384058     -0.33725897
H      -2.49417216      1.65292748     -0.07918325
H      -1.65195115      0.94762281     -1.46923953
H       0.27639224     -1.60190264      0.53250890
H      -0.02524279     -1.03649182     -1.09214188
H       1.47720005      0.54218673      1.05603287
H       1.26174171      1.03220847     -0.66021409
