29
CCCCN(CCCC)N=O
C       4.63677450     -1.09976354     -0.75396985
C       3.12114432     -1.20224864     -0.81731390
C       2.45083289     -0.16827144      0.08946235
C       0.91836385     -0.28050006      0.01935125
N       0.24989086      0.65831746      0.93692117
C      -1.13394974      0.23317787      1.24152052
C      -2.10163048      0.22101117      0.04575537
C      -3.50512930     -0.20670876      0.48051345
C      -4.47079716     -0.22545001     -0.69374760
N       0.38416436      1.91949683      0.58038004
O       0.02863800      2.68416172      1.48373098
H       4.97706456     -0.11092432     -1.07758149
H       4.99934827     -1.27198077      0.26446186
H       5.09490095     -1.84765990     -1.40870438
H       2.79367020     -1.05638143     -1.85324845
H       2.81692473     -2.21242970     -0.51959342
H       2.78373413     -0.31969540      1.12409508
H       2.77474517      0.83522718     -0.21236511
H       0.65602157     -1.31043581      0.29592348
H       0.58207605     -0.13420807     -1.01623565
H      -1.09792959     -0.77271564      1.68163704
H      -1.55100534      0.86515197      2.03801137
H      -1.74217475     -0.46954412     -0.72590360
H      -2.15384207      1.21815064     -0.40760786
H      -3.46721191     -1.20547037      0.93075171
H      -3.88373171      0.48075467      1.24583869
H      -4.13803662     -0.92831378     -1.46418666
H      -5.46681369     -0.53330544     -0.36046721
H      -4.55604203      0.76713635     -1.14742918
