16
Cc1ccccc1O
C      -2.17988513      0.40984085      0.11825607
C      -0.68736000      0.27011139      0.04716507
C       0.13546381      1.40362005      0.09283680
C       1.52447897      1.27516525      0.02678655
C       2.10505906      0.01294693     -0.08554375
C       1.29844336     -1.12376152     -0.13210472
C      -0.08813369     -0.98864075     -0.06568782
O      -0.89029431     -2.09449491     -0.11027002
H      -2.56926170     -0.12035366      0.99337870
H      -2.64239792      0.00448575     -0.78746445
H      -2.48110632      1.45919620      0.20418696
H      -0.30119546      2.39582930      0.18032773
H       2.15268200      2.16152385      0.06312414
H       3.18627356     -0.08414725     -0.13675457
H       1.76504806     -2.09965160     -0.21968158
H      -0.32781432     -2.88166989     -0.18855510
