41
COCC1COc2cc3ncnc(Nc4cccc(Br)c4)c3cc2O1
C       5.91881835      2.01825898      1.63374186
O       5.03429328      0.99084354      1.20585519
C       4.85990339      0.99820191     -0.21380643
C       3.83791540     -0.06054299     -0.64091469
C       4.12372517     -1.42341709     -0.01633933
O       3.22180977     -2.40810260     -0.54545452
C       1.92769445     -1.95579749     -0.52100447
C       0.92232907     -2.91082807     -0.66104406
C      -0.42160200     -2.56170049     -0.62701825
N      -1.33188182     -3.53018911     -0.75244957
C      -2.61492166     -3.15953720     -0.69963608
N      -3.07150147     -1.91421148     -0.54649466
C      -2.15285721     -0.93782583     -0.43594336
N      -2.58135359      0.41218374     -0.30811846
C      -3.87380165      0.90345416     -0.01483951
C      -4.79643092      0.19201062      0.76291606
C      -6.04223863      0.73726444      1.09043240
C      -6.37638222      2.01960787      0.66433371
C      -5.45498071      2.75233616     -0.07710165
Br     -5.88791669      4.50585807     -0.63888300
C      -4.21042587      2.20896625     -0.40499894
C      -0.76963760     -1.21178796     -0.45818037
C       0.25568930     -0.24133027     -0.31974601
C       1.59414381     -0.61349939     -0.37085847
O       2.52131907      0.38791620     -0.26024320
H       6.02105958      1.95395958      2.72028484
H       5.51439528      3.00238509      1.37840374
H       6.90610431      1.88667008      1.18070719
H       5.82653625      0.78745323     -0.68565423
H       4.51523867      1.99094713     -0.52638898
H       3.84686874     -0.12954210     -1.73738096
H       5.14059597     -1.75221960     -0.25478453
H       4.01456599     -1.41427835      1.07559526
H       1.19436431     -3.95629471     -0.78501207
H      -3.35667795     -3.94535428     -0.79256324
H      -2.12389081      0.96826964     -1.02306744
H      -4.55356439     -0.80083251      1.13311972
H      -6.74437582      0.15867504      1.68512782
H      -7.34476402      2.43834246      0.92317874
H      -3.50185863      2.80688766     -0.97128371
H       0.01369351      0.80679970     -0.16448632
