30
CCCCCC1CCCC(=O)O1
C       4.92947628     -0.20178571      0.21353119
C       3.51816742     -0.75407556      0.33461380
C       2.47098937      0.35186265      0.20546064
C       1.05213652     -0.20799982      0.32834276
C       0.00639424      0.89978348      0.19598802
C      -1.43227997      0.41102232      0.40768413
C      -1.87333860     -0.61961237     -0.63325089
C      -3.39175807     -0.77496192     -0.68441548
C      -4.07900710     -0.05232012      0.46124637
C      -3.62695642      1.38379937      0.50140566
O      -4.39878762      2.31918192      0.67291092
O      -2.28927396      1.56959026      0.35560942
H       5.13140194      0.53426549      0.99825386
H       5.07998569      0.28068121     -0.75750339
H       5.66200150     -1.00940840      0.30873059
H       3.41082665     -1.25746649      1.30248446
H       3.35988909     -1.50976652     -0.44357732
H       2.63709496      1.10709087      0.98334492
H       2.58478394      0.85463602     -0.76271791
H       0.89684862     -0.96537628     -0.44835649
H       0.93750443     -0.70716607      1.29803044
H       0.21619387      1.69286371      0.92587525
H       0.09045285      1.38028701     -0.78753971
H      -1.50846380     -0.01330578      1.41751742
H      -1.40831455     -1.58876302     -0.41864149
H      -1.52709330     -0.32324934     -1.63148278
H      -3.75479014     -0.36599272     -1.63626335
H      -3.66316700     -1.83661279     -0.68018126
H      -5.16324937     -0.07550325      0.30687310
H      -3.86766747     -0.52169814      1.42765065
