50
CC(C)c1ccc2c(c1)CC[C@@H]1[C@]2(C)CCC[C@@]1(C)C(=O)O
C       5.26511863     -0.38986978      1.41962180
C       4.85833429      0.14210381      0.04311704
C       5.35751801      1.57524995     -0.15718180
C       3.36027095      0.03736742     -0.17512409
C       2.85888837     -0.76294771     -1.20334664
C       1.48175905     -0.87295151     -1.41733916
C       0.55372195     -0.19462213     -0.60592224
C       1.05487468      0.62975961      0.42306089
C       2.44530739      0.72737354      0.62975351
C       0.16067513      1.38783795      1.37438973
C      -1.32186316      1.38462715      1.01136356
C      -1.73181436      0.01069344      0.45758802
C      -0.96650256     -0.28358799     -0.88352130
C      -1.21654568      0.73832738     -2.01986200
C      -1.39207890     -1.69481650     -1.37452964
C      -2.90545694     -1.87644868     -1.47982854
C      -3.60050994     -1.62035914     -0.14960868
C      -3.27822997     -0.23609608      0.46239330
C      -4.10025971      0.84817988     -0.26256959
C      -3.76536327     -0.24969649      1.92234869
O      -4.52859327      0.54647220      2.44634634
O      -3.24646981     -1.24731902      2.66496696
H       6.35524726     -0.38542953      1.52696777
H       4.91875707     -1.42001032      1.55917737
H       4.84896106      0.21507209      2.23254372
H       5.36459941     -0.48223773     -0.70519507
H       5.07745092      1.95256212     -1.14704614
H       6.44937346      1.61670562     -0.07936824
H       4.94504307      2.26149173      0.59043600
H       3.53559656     -1.30904192     -1.85682826
H       1.15237499     -1.49311858     -2.24637319
H       2.81244654      1.35549826      1.43993768
H       0.50120064      2.42749557      1.45358765
H       0.27486005      0.93164164      2.36669015
H      -1.52804909      2.17859975      0.28632914
H      -1.89330402      1.64351203      1.90986949
H      -1.33259579     -0.72373674      1.17809527
H      -0.62592259      0.48360070     -2.90975936
H      -2.25208626      0.76966562     -2.35244005
H      -0.92335788      1.75609465     -1.74274455
H      -0.99354422     -2.45771831     -0.69159760
H      -0.96594344     -1.91322600     -2.36111207
H      -3.11825504     -2.90375658     -1.79982524
H      -3.31814217     -1.22661967     -2.25819174
H      -3.29893836     -2.42249912      0.53656996
H      -4.68480441     -1.73666011     -0.27553966
H      -5.17355000      0.70930910     -0.07883452
H      -3.98025981      0.82767878     -1.34480736
H      -3.85232120      1.85432893      0.09037966
H      -3.63761761     -1.10847926      3.55296303
