18
O=C(O)c1cc(O)c(O)c(O)c1
O       2.96945920      1.50091002     -1.06446077
C       2.53260054      0.52419671     -0.48371741
O       3.34790569     -0.36943269      0.09982274
C       1.09787299      0.18387348     -0.33646281
C       0.15429499      1.05462143     -0.91146965
C      -1.20091570      0.76685937     -0.79306138
O      -2.16406612      1.57436726     -1.33009242
C      -1.61619501     -0.37161491     -0.11210062
O      -2.94765431     -0.66310293      0.00961503
C      -0.68276799     -1.22994659      0.45484915
O      -1.09825944     -2.34563277      1.12181344
C       0.67605905     -0.96444376      0.35025870
H       4.24935904     -0.02586380     -0.07233423
H       0.49352620      1.94102500     -1.44097485
H      -1.72663167      2.32424353     -1.77157922
H      -3.39935170      0.06890710     -0.45910241
H      -2.07515800     -2.32078614      1.06459309
H       1.38992224     -1.64818028      0.80060800
