33
Cn1nc(S(N)(=O)=O)sc1=NS(=O)(=O)Cc1ccccc1
C       1.68951589     -0.34146639     -2.08092995
N       2.34603848     -0.13352548     -0.80283911
N       3.72572324     -0.10219758     -0.85606424
C       4.19468872      0.17110998      0.32800625
S       5.94457230      0.28078410      0.61205041
N       6.75835832     -0.00870229     -0.84428431
O       6.24289452      1.65608330      0.94878486
O       6.31107101     -0.81925382      1.47776389
S       3.02118774      0.42479994      1.60591768
C       1.73556753      0.13239149      0.41080917
N       0.56092313      0.22461198      0.90604152
S      -0.76473150     -0.01802018      0.03035989
O      -0.85172500      1.03054906     -0.96765704
O      -0.80709867     -1.41591413     -0.35323789
C      -2.01627613      0.27292403      1.28140017
C      -3.38607771      0.10168242      0.67862039
C      -4.00971880     -1.15451444      0.67160429
C      -5.27712409     -1.31231005      0.10907897
C      -5.93301352     -0.21909651     -0.45289914
C      -5.32133482      1.03265995     -0.45627254
C      -4.05392928      1.19365252      0.10536558
H       1.00434633     -1.19016100     -2.04288865
H       1.15934465      0.56021629     -2.39659318
H       2.42192128     -0.56940704     -2.86476006
H       7.31992654      0.80900446     -1.08732009
H       7.31815195     -0.85850348     -0.75721804
H      -1.88141575      1.28794572      1.66874994
H      -1.85451411     -0.43832943      2.09774537
H      -3.50967576     -2.02378786      1.09533988
H      -5.75070090     -2.29082037      0.10427385
H      -6.91841740     -0.34406179     -0.89403078
H      -5.82953533      1.88396616     -0.90210162
H      -3.58894285      2.17769045      0.08229926
