60
CC(C)N(c1n[n+](C)c(N=Nc2ccc(N(C)C)cc2)s1)C(C)C.COS(=O)(=O)[O-]
C      -5.67645292     -0.18926773     -2.01366183
C      -4.69949040      0.65857483     -1.19585569
C      -5.33451590      1.96858385     -0.72784863
N      -4.15012043     -0.10628159     -0.04843351
C      -2.80146200     -0.31489847      0.11522325
N      -2.26945318     -1.02779923      1.09310747
N      -0.90134599     -1.05092898      0.99019634
C      -0.14627725     -1.82166236      1.96503165
C      -0.33658989     -0.38299053      0.00556047
N       0.97902681     -0.27281193     -0.28908418
N       1.70713175      0.05617582      0.67057900
C       3.04964368      0.19601141      0.26660766
C       3.72110495      1.38277323      0.54582438
C       5.06929603      1.54486249      0.19138551
C       5.80397266      0.53539865     -0.45421141
N       7.15128696      0.69126655     -0.78429583
C       7.76431963      2.01843363     -0.71842930
C       7.77782184     -0.24437395     -1.71890576
C       5.10841032     -0.66071623     -0.70258590
C       3.76044957     -0.83302308     -0.35134349
S      -1.56538849      0.32529924     -0.94368826
C      -5.11773638     -0.60765609      0.96301759
C      -5.14683073     -2.13583969      1.01560171
C      -4.88432914      0.01451425      2.34119342
C      -1.24630948      0.25557176     -0.11622830
O      -0.03566999      0.09824799     -0.82169115
S       1.29434401     -0.25803107      0.05435563
O       1.41989147      0.87351534      0.96904542
O       2.34780624     -0.34879778     -0.95092212
O       0.95547587     -1.52397388      0.69886722
H      -6.58993581     -0.42815462     -1.46095812
H      -5.97610369      0.34436069     -2.92227093
H      -5.21059448     -1.13327032     -2.31636812
H      -3.90963654      0.94025622     -1.89808080
H      -6.21939337      1.80275131     -0.10565325
H      -5.64555205      2.57212296     -1.58736107
H      -4.62048839      2.55827190     -0.14283916
H       0.60821130     -2.43584737      1.46526900
H       0.32218441     -1.14356136      2.68333225
H      -0.82831238     -2.48613816      2.50427951
H       3.20701161      2.19960798      1.04613047
H       5.53147527      2.49519162      0.44433049
H       7.27361947      2.71147338     -1.41057565
H       7.72403648      2.42293734      0.29865664
H       8.82669369      1.98136362     -0.98438887
H       8.82831857      0.01088136     -1.89797052
H       7.78055672     -1.26279551     -1.31600348
H       7.26595555     -0.23285667     -2.68751330
H       5.60605630     -1.50444200     -1.17277246
H       3.28524139     -1.78601247     -0.56454516
H      -6.12900233     -0.30130163      0.67320626
H      -5.28984068     -2.55889731      0.01568568
H      -5.97420802     -2.47854561      1.64661255
H      -4.22734532     -2.55963560      1.42926479
H      -5.70809019     -0.24070954      3.01681609
H      -4.83197458      1.10636222      2.27360247
H      -3.96135442     -0.33705652      2.81089842
H      -1.51861177     -0.66658134      0.40539172
H      -1.17978627      1.08290687      0.59627340
H      -2.03714007      0.48714211     -0.83509184
