28
CCCCCCOCCO
C       4.36527205      0.86402761      1.20223532
C       2.93925757      0.35861073      1.36104396
C       2.01358883      0.96185111      0.30390897
C       0.54285541      0.57628383      0.48952816
C       0.27382014     -0.91689818      0.27423649
C      -1.21094933     -1.25447838      0.38598283
O      -1.92354520     -0.60215915     -0.66398724
C      -3.32859897     -0.87744623     -0.59800383
C      -4.00548971     -0.13111956     -1.74225260
O      -3.77429984      1.27021443     -1.60368721
H       4.41084897      1.95221335      1.31228928
H       5.01217015      0.41863143      1.96454131
H       4.76738229      0.60040433      0.21878764
H       2.94544709     -0.73373326      1.28424579
H       2.57728656      0.61416397      2.36353871
H       2.08713101      2.05575376      0.34724259
H       2.34877597      0.66319518     -0.69684044
H       0.20945280      0.87079953      1.49206292
H      -0.05132007      1.16021754     -0.22391981
H       0.63571330     -1.20339400     -0.72051593
H       0.82127069     -1.50976547      1.01422682
H      -1.34541103     -2.33814434      0.29307062
H      -1.60177853     -0.93179455      1.35788722
H      -3.71407080     -0.51868330      0.36281548
H      -3.50242240     -1.95442506     -0.69154609
H      -3.59297842     -0.43967499     -2.70791906
H      -5.08467646     -0.30648215     -1.74136831
H      -2.81473206      1.35183183     -1.43498186
