29
Oc1ccc(C2CCCCC2)cc1
O       5.15635401      0.28492270     -0.08426454
C       3.79376439      0.25278868     -0.12054216
C       3.06036748     -0.46821455      0.81446778
C       1.66486485     -0.47282635      0.73892944
C       0.99618514      0.24119852     -0.26879299
C      -0.51950092      0.25071978     -0.37053737
C      -1.08432865     -1.15622253     -0.63323633
C      -2.60801858     -1.13461521     -0.74293001
C      -3.25207952     -0.49835821      0.48539728
C      -2.69578634      0.89679361      0.75468005
C      -1.17246351      0.88369154      0.87063743
C       1.76090580      0.96098785     -1.20032523
C       3.15514582      0.96622718     -1.12571185
H       5.45656991     -0.25455349      0.66509065
H       3.55008136     -1.02900639      1.60385248
H       1.10250449     -1.04084473      1.47644918
H      -0.79722503      0.87428053     -1.23263676
H      -0.79816885     -1.84444041      0.17217109
H      -0.65989606     -1.56525316     -1.55853619
H      -2.90139202     -0.57583479     -1.64016070
H      -2.98249239     -2.15695950     -0.86731849
H      -3.07645974     -1.13598759      1.36059162
H      -4.33727994     -0.44130575      0.34441107
H      -3.13164579      1.29529525      1.67777963
H      -2.99419559      1.57206112     -0.05667115
H      -0.81007286      1.91059599      1.00393928
H      -0.89227318      0.33371643      1.77795916
H       1.27711903      1.52541153     -1.99428846
H       3.73941667      1.52573194     -1.85040393
