38
O=C(COC(=O)c1ccccc1)NC1CCCCC1
O       0.86915078     -3.12584245      1.61172742
C       0.06210543     -2.44119403      0.98926501
C      -1.44316382     -2.50415645      1.25950122
O      -2.17004954     -1.36202402      0.79476768
C      -2.10743156     -0.28113081      1.61256991
O      -1.47263800     -0.20985386      2.65115466
C      -2.89759774      0.84698582      1.05041089
C      -3.68690904      0.71350478     -0.10047018
C      -4.40468484      1.80828515     -0.58851429
C      -4.33899229      3.03694761      0.06792232
C      -3.55808040      3.17602041      1.21436478
C      -2.83935617      2.08463413      1.70575411
N       0.41329339     -1.61008012     -0.05776813
C       1.80373871     -1.30688240     -0.35946544
C       2.34294891     -0.23338879      0.59592464
C       3.77763381      0.15849950      0.25224917
C       3.91008930      0.59253375     -1.20432413
C       3.37708909     -0.47211523     -2.15829668
C       1.94086647     -0.86161788     -1.81941587
H      -1.83509389     -3.37663164      0.72633997
H      -1.61553740     -2.66400729      2.33027393
H      -3.75914361     -0.23544087     -0.62571053
H      -5.01825010      1.70237356     -1.48021169
H      -4.89984007      3.88738422     -0.31299837
H      -3.50932795      4.13358035      1.72747410
H      -2.23367393      2.20400753      2.60264422
H      -0.29893597     -0.96899798     -0.38544894
H       2.38601186     -2.22630638     -0.21524412
H       2.30285513     -0.59191255      1.63153515
H       1.70203422      0.65723891      0.55305703
H       4.44278834     -0.69309189      0.44122235
H       4.10508103      0.97140434      0.91011592
H       4.96142290      0.79999624     -1.43327149
H       3.35867701      1.52841814     -1.35746391
H       3.42513422     -0.10129351     -3.18833970
H       4.01764789     -1.36121443     -2.10836021
H       1.61195271     -1.66668211     -2.48785779
H       1.27818512     -0.00794977     -2.01402583
