22
Clc1cccc2c1Oc1ccccc1O2
Cl     -2.20848836     -3.21478798     -0.56181954
C      -2.26582675     -1.53864666     -0.15092154
C      -3.51152684     -0.95991791      0.11060086
C      -3.59861804      0.39253055      0.44613411
C      -2.44046206      1.16596785      0.52011941
C      -1.19841544      0.58508533      0.25843614
C      -1.10312779     -0.76674614     -0.07774792
O       0.10809238     -1.35981392     -0.33936598
C       1.20696325     -0.54540002     -0.24967269
C       2.45349424     -1.11314301     -0.50861556
C       3.60299793     -0.32490771     -0.43020502
C       3.50289842      1.02673539     -0.09359526
C       2.25308399      1.59251128      0.16518810
C       1.10709478      0.80262061      0.08603359
O      -0.09802806      1.40158116      0.34848038
H      -4.41741340     -1.55863616      0.05422565
H      -4.56764592      0.84211690      0.64941017
H      -2.50383863      2.21931482      0.78100904
H       2.52898867     -2.16493724     -0.77031510
H       4.57681089     -0.76453401     -0.63154963
H       4.39911310      1.63928391     -0.03294116
H       2.17385366      2.64372297      0.42711193
