36
Cc1onc(-c2ccccc2)c1-c1ccc(S(N)(=O)=O)cc1
C      -0.28711139     -3.13964395      2.71086682
C      -1.13961021     -2.12572928      2.06008074
O      -2.44935953     -2.13413352      2.41629402
N      -3.11594591     -1.11965853      1.76624758
C      -2.20828657     -0.49790134      0.99426700
C      -2.59509877      0.63907660      0.15799072
C      -2.06854102      0.80450155     -1.13081260
C      -2.44030497      1.90035529     -1.91449487
C      -3.34587733      2.83746053     -1.42094704
C      -3.88527808      2.67876375     -0.14625292
C      -3.51412477      1.58409223      0.63821616
C      -0.92579378     -1.11317386      1.14927767
C       0.37171004     -0.78472393      0.59447007
C       1.08611766     -1.73243273     -0.15197053
C       2.33292025     -1.40944948     -0.69299919
C       2.86026453     -0.13071246     -0.49378379
S       4.45293381      0.27202034     -1.15062969
N       4.05580931      0.91513123     -2.64948468
O       5.17684505     -0.94806871     -1.42054015
O       5.02054966      1.35850687     -0.38757819
C       2.16278378      0.81913908      0.25689694
C       0.91655430      0.49104148      0.79573328
H      -0.11088374     -3.98022904      2.03294861
H      -0.75760331     -3.52827590      3.61963619
H       0.68063885     -2.71357789      2.99288759
H      -1.37537211      0.07802001     -1.54725294
H      -2.02726693      2.01783570     -2.91312620
H      -3.63741634      3.68760040     -2.03244845
H      -4.59818387      3.40361976      0.23839304
H      -3.94714264      1.47260303      1.63077416
H       0.67529822     -2.72538309     -0.32438778
H       2.88118457     -2.15435927     -1.26587179
H       4.45502969      0.33736190     -3.38990714
H       4.34396309      1.89324744     -2.69250100
H       2.57870888      1.80994957      0.42699748
H       0.37788954      1.23712620      1.37776350
