51
CCCCCCCCCCCCCCCCO
C       6.01838428     -1.30475237      1.86926741
C       6.63977481     -0.09016921      1.19771710
C       6.43087324     -0.05488879     -0.31821512
C       4.97180151     -0.03591954     -0.78673254
C       4.18830165      1.17558802     -0.27556721
C       2.80028955      1.31072670     -0.90988383
C       1.85028788      0.16953138     -0.53920322
C       0.44722753      0.41092520     -1.10342945
C      -0.50226289     -0.73040607     -0.73214560
C      -1.88995042     -0.60361204     -1.36943597
C      -2.69432479      0.58619820     -0.83982964
C      -4.08570266      0.70819740     -1.47078653
C      -5.03032199     -0.47651228     -1.24273093
C      -5.27018405     -0.86379373      0.21977220
C      -5.89611190      0.26134620      1.04994385
C      -6.24322152     -0.19378799      2.46289633
O      -5.05862683     -0.54912395      3.16138089
H       4.92642903     -1.28294282      1.80629104
H       6.37422421     -2.23263295      1.41055437
H       6.28809282     -1.32622548      2.93006994
H       7.71855755     -0.09684160      1.39571134
H       6.24813856      0.82328403      1.65843365
H       6.92565664     -0.92661825     -0.76456029
H       6.94439256      0.82802468     -0.71886697
H       4.47804766     -0.96472819     -0.48235157
H       4.96835322     -0.02839727     -1.88389168
H       4.07999439      1.12401215      0.81377115
H       4.75541575      2.08826239     -0.49632124
H       2.36488823      2.26157768     -0.57816408
H       2.89812253      1.37238858     -2.00056241
H       2.23446617     -0.77977108     -0.92876629
H       1.79540117      0.07594063      0.55209545
H       0.50217551      0.50400144     -2.19472277
H       0.06429380      1.36053811     -0.71394473
H      -0.06295432     -1.68054251     -1.06101258
H      -0.60230451     -0.79027021      0.35846820
H      -1.78940597     -0.52846089     -2.45884731
H      -2.43282305     -1.53313370     -1.16432482
H      -2.77903531      0.52302322      0.25082666
H      -2.15594123      1.51647035     -1.05387329
H      -4.55835969      1.62375647     -1.09535746
H      -3.97164215      0.85295873     -2.55266133
H      -5.99548015     -0.23980559     -1.70846988
H      -4.64894436     -1.35391784     -1.77830035
H      -5.94111808     -1.73204630      0.23393936
H      -4.33113592     -1.19475549      0.67720980
H      -6.80571423      0.62204818      0.55637738
H      -5.19386435      1.10011003      1.11303501
H      -6.73330332      0.61911199      3.00798261
H      -6.91476142     -1.05808973      2.44317221
H      -5.32609513     -0.82677735      4.05404310
