48
CC(CC#N)N1C(=O)c2ccccc2C1C(=O)NCc1ccc(OC(F)(F)F)cc1
C      -2.08656950      3.23987811      0.75271387
C      -2.95186092      2.11584962      0.16857815
C      -4.36839211      2.11870435      0.77355910
C      -5.14417622      3.27635039      0.31157217
N      -5.74683467      4.19117307     -0.07064028
N      -2.30201976      0.80558986      0.33642355
C      -2.05962297      0.21180319      1.56771443
O      -2.14778012      0.71717316      2.66875915
C      -1.72552903     -1.19206354      1.31354595
C      -1.38334693     -2.17778544      2.21965315
C      -1.13466510     -3.45424723      1.71416861
C      -1.23975522     -3.71071978      0.33477829
C      -1.59398236     -2.69613683     -0.56142896
C      -1.83373654     -1.42902459     -0.05507224
C      -2.21468955     -0.16409319     -0.77106953
C      -1.16420695      0.20427668     -1.84073897
O      -1.16431321     -0.31426208     -2.95613547
N      -0.17249588      1.06009405     -1.40849998
C       1.02994383      1.29233537     -2.17359242
C       2.16150979      0.45560702     -1.63418817
C       3.13684458      1.01769221     -0.80112043
C       4.17128262      0.23183653     -0.27885124
C       4.24085574     -1.12927732     -0.57621071
O       5.18693282     -2.01011667     -0.13659536
C       6.26116360     -1.49564925      0.63147294
F       7.10723251     -2.50789015      0.92642115
F       5.82093444     -0.96670277      1.79395581
F       6.95126412     -0.56132934     -0.05857040
C       3.26261102     -1.69422225     -1.39959344
C       2.23270710     -0.91160838     -1.92578400
H      -2.50492287      4.22348081      0.51511611
H      -1.07129714      3.20762028      0.34439720
H      -2.00490835      3.16690185      1.84189222
H      -3.02024676      2.29019597     -0.91356941
H      -4.89554790      1.20288879      0.47785388
H      -4.32397123      2.11300563      1.86886292
H      -1.31353437     -1.96333502      3.28101615
H      -0.85873779     -4.25985325      2.39133004
H      -1.04111987     -4.71337376     -0.03893736
H      -1.66809864     -2.90267364     -1.62599185
H      -3.20546340     -0.25249497     -1.22927726
H      -0.14126612      1.26129877     -0.41555453
H       1.26590778      2.35847585     -2.08777280
H       0.86959704      1.07594835     -3.23527760
H       3.10167086      2.07548873     -0.54946096
H       4.89977822      0.72374863      0.35862030
H       3.30090746     -2.75427312     -1.63949678
H       1.48194797     -1.37628471     -2.56391149
