43
CCN(CC)C(C)C(C)OC(=O)c1ccc(N)cc1
C      -4.66572744     -1.58677601      0.23592131
C      -3.46727240     -0.97448027     -0.48416258
N      -2.87560176      0.13925433      0.27813671
C      -3.68085949      1.36762397      0.15764328
C      -3.41237786      2.35672383      1.28879115
C      -1.43538709      0.35582426     -0.03345246
C      -1.13030252      0.45529088     -1.53964084
C      -0.52246708     -0.70777340      0.65903222
C      -0.75829988     -0.77377557      2.16877468
O       0.86759368     -0.33325802      0.49601231
C       1.59993333     -1.05285452     -0.38818549
O       1.19368596     -1.96997229     -1.08330003
C       3.00493399     -0.56275533     -0.41798401
C       3.89856021     -1.16642339     -1.31019068
C       5.22820173     -0.73697149     -1.37647997
C       5.69715094      0.26760764     -0.52705922
N       6.99154082      0.77353688     -0.68171237
C       4.78856891      0.90657654      0.32036034
C       3.45599640      0.48462903      0.39366878
H      -5.00855796     -2.47571541     -0.30419658
H      -5.51155571     -0.89670828      0.29883919
H      -4.39682257     -1.89676906      1.25142348
H      -2.74180109     -1.78629776     -0.60590117
H      -3.75756513     -0.65738197     -1.49343291
H      -3.53351535      1.85700329     -0.81145802
H      -4.74818340      1.12839493      0.21608956
H      -2.41375892      2.79774010      1.22872339
H      -3.52109488      1.87533439      2.26651088
H      -4.13391904      3.17936268      1.24067056
H      -1.12139010      1.31669126      0.39180762
H      -1.23448948     -0.51168613     -2.04224047
H      -0.10646769      0.80709036     -1.70462619
H      -1.78873219      1.17189304     -2.03997418
H      -0.70688325     -1.70590870      0.24632977
H      -0.60004660      0.20609148      2.63281791
H      -1.76768001     -1.11885717      2.41033940
H      -0.04237415     -1.46041657      2.63417082
H       3.56251413     -1.96494688     -1.96893909
H       5.89519435     -1.19815123     -2.10046175
H       7.65569804      0.10237789     -1.05513218
H       7.34961394      1.25299408      0.13840608
H       5.11086977      1.74310901      0.93541625
H       2.78307685      0.99272957      1.07955851
