15
O=[N+]([O-])c1ccc(C=NO)o1
O       2.95987912      1.37695307      1.88324589
N       2.96261926      0.33651406      1.21351222
O       3.94919818     -0.37529709      0.98136462
C       1.72376986     -0.09779497      0.64931563
C       1.40336114     -1.18641923     -0.12564600
C       0.01133881     -1.07258832     -0.37189140
C      -0.42053146      0.07653672      0.26935045
C      -1.71107736      0.69567376      0.37199703
N      -2.74620466      0.17052316     -0.20396670
O      -3.86725403      0.97058264      0.05418527
O       0.63564782      0.67907731      0.90002094
H       2.08065258     -1.95763149     -0.46704042
H      -0.61566962     -1.74202330     -0.94715917
H      -1.78613773      1.62989475      0.95666501
H      -4.57959193      0.49599895     -0.41509839
