14
BrCCCCBr
Br      3.36359028      0.99006476     -0.41317852
C       1.89169068     -0.27325565     -0.25029552
C       0.58977173      0.48182773     -0.04090853
C      -0.58977332     -0.48182759      0.09136872
C      -1.89169120      0.27325478      0.30076999
Br     -3.36357422     -0.99007059      0.46376925
H       1.88079548     -0.86153092     -1.17189864
H       2.12939335     -0.92320271      0.59623000
H       0.65782675      1.10343149      0.86084516
H       0.41277192      1.16416916     -0.88189860
H      -0.41276466     -1.16417392      0.93235372
H      -0.65783759     -1.10342141     -0.81039164
H      -2.12943213      0.92316218     -0.54577541
H      -1.88076707      0.86157270      1.22234534
