26
c1cc[n+]2c(c1)-c1cccc[n+]1CC2
C       3.21733328      0.83811239     -0.01898886
C       3.50176970     -0.51573674      0.00057991
C       2.45918932     -1.42784557      0.05139814
N       1.16500736     -1.01432999      0.07550067
C       0.84819558      0.31651636      0.08374095
C       1.89276634      1.25651137      0.02453838
C      -0.58257245      0.68395153      0.15269384
C      -1.04625129      1.93185204      0.60652966
C      -2.40671849      2.21502821      0.62567835
C      -3.30485494      1.25740529      0.18921090
C      -2.83021627      0.03039698     -0.24744195
N      -1.50028563     -0.24846935     -0.24728454
C      -1.06073682     -1.57858416     -0.72778585
C       0.09959019     -2.04152367      0.13077807
H       4.02747388      1.56796356     -0.06312916
H       4.53619197     -0.85840617     -0.02265910
H       2.65848504     -2.49803451      0.07495146
H       1.69888732      2.32883627      0.00327924
H      -0.36277303      2.70357820      0.96039287
H      -2.76578863      3.18411256      0.97625355
H      -4.37404465      1.46912325      0.18884831
H      -3.51718961     -0.73623844     -0.60228683
H      -0.77571426     -1.44778558     -1.77756322
H      -1.89498299     -2.28279874     -0.65603180
H       0.49443107     -2.99231737     -0.23952843
H      -0.17719201     -2.14131770      1.18615374
