36
N#Cc1c(N)nc2nc(C3CCCCC3)ncc2c1N
N       6.99970574     -0.22168400     -0.05535323
C       5.85464071     -0.08722862      0.08439790
C       4.43660733      0.04700185      0.21938669
C       3.90286363      1.03881093      1.03599048
N       4.69218438      1.90315936      1.79360333
N       2.57996204      1.21066229      1.20021354
C       1.71715330      0.44780706      0.53298215
N       0.42881162      0.71340736      0.70828820
C      -0.47625972     -0.01121401      0.03403835
C      -1.93566370      0.31776018      0.25757172
C      -2.69058930     -0.88086487      0.85122321
C      -4.16999785     -0.56217328      1.05802133
C      -4.82586699     -0.07240513     -0.22989678
C      -4.07908554      1.11765259     -0.82558650
C      -2.59931296      0.80506311     -1.03898031
N      -0.16541069     -0.99471932     -0.82121027
C       1.14543924     -1.24515393     -0.97887503
C       2.16173686     -0.56610140     -0.31479038
C       3.55519842     -0.82330355     -0.44036803
N       4.02962400     -1.78551571     -1.36375200
H       4.06859918      2.54957956      2.27535871
H       5.39465709      2.39655735      1.25195915
H      -1.98525615      1.13833875      0.98733289
H      -2.24321120     -1.17077187      1.81009580
H      -2.60323783     -1.75326170      0.19033776
H      -4.27258133      0.20545391      1.83491171
H      -4.69171753     -1.45497248      1.42075504
H      -5.86614922      0.20803587     -0.03000611
H      -4.84995191     -0.89033754     -0.96050516
H      -4.53718300      1.39969696     -1.78028834
H      -4.17653541      1.98179161     -0.15692862
H      -2.50564004      0.04479429     -1.82555905
H      -2.08780820      1.70175897     -1.41037773
H       1.35662474     -2.03764609     -1.68997765
H       5.00206027     -2.07041281     -1.24556556
H       3.43559004     -2.59956570     -1.49400268
