28
Cc1ccc2nc3ccccc3c(N)c2c1
C       4.50024917     -0.04932216     -0.33764357
C       3.04107992      0.17412998     -0.60027466
C       2.62380454      0.99083760     -1.64578581
C       1.26184409      1.22667942     -1.84413268
C       0.28919077      0.67350601     -1.02316550
N      -0.98796082      0.98144717     -1.28106498
C      -1.95215180      0.52320915     -0.47356644
C      -3.25652712      0.92038895     -0.73873680
C      -4.33000003      0.51992108      0.05775606
C      -4.09877638     -0.29584573      1.15356070
C      -2.79786635     -0.71332173      1.43502885
C      -1.70066465     -0.32423336      0.62239638
C      -0.35412143     -0.73565296      0.82904353
N      -0.02558208     -1.56300418      1.94162488
C       0.68135843     -0.16415004      0.03720945
C       2.07035016     -0.38498023      0.24048832
H       4.87306436      0.70090700      0.36640681
H       4.67237645     -1.04625002      0.08152657
H       5.07982321      0.01716176     -1.26443133
H       3.34680296      1.45870869     -2.30966503
H       0.94941883      1.87370171     -2.66110977
H      -3.44119958      1.57144406     -1.59062462
H      -5.33632761      0.85558459     -0.17714738
H      -4.92271148     -0.60459590      1.79144213
H      -2.64677229     -1.33630397      2.31164087
H      -0.77769898     -2.19272867      2.19950238
H       0.83122492     -2.08759344      1.80169859
H       2.40777277     -0.98964478      1.07802304
