14
CCCOC=O
C      -2.11647536      0.16013786      0.08783633
C      -0.83493812     -0.65284681      0.12218344
C       0.39684569      0.23504609      0.25014973
O       1.55442111     -0.61077153      0.27482100
C       2.72694793      0.06080434      0.38676068
O       2.86982303      1.27008958      0.46454591
H      -2.98331348     -0.50163852     -0.00431224
H      -2.12202892      0.84774689     -0.76390169
H      -2.23322365      0.74717399      1.00438048
H      -0.75607024     -1.26218539     -0.78615661
H      -0.86578886     -1.36142671      0.95857929
H       0.34824958      0.81552088      1.17902935
H       0.46049161      0.91706664     -0.60596180
H       3.55505968     -0.66471731      0.39755608
