34
CCOP(=S)(OCC)Oc1cc(Cl)c(Cl)c(SC)c1
C      -2.27253070     -2.41305894      3.09626488
C      -2.67568912     -1.61130394      1.87598785
O      -1.50318000     -1.09811878      1.26634552
P      -1.66655109     -0.08587918      0.01272291
S      -2.52725450     -0.78674292     -1.57688994
O      -2.40257197      1.16814302      0.72737073
C      -2.58634563      2.36132164     -0.01633344
C      -2.82541132      3.49857398      0.95555595
O      -0.16410156      0.48713288     -0.15509181
C       0.94922456     -0.23084989     -0.48975250
C       0.99935381     -1.61564174     -0.58913286
C       2.20346608     -2.24989488     -0.92492367
Cl      2.17590902     -3.98000075     -1.01651038
C       3.36577589     -1.50174687     -1.17067956
Cl      4.85411119     -2.30612435     -1.57072032
C       3.31150386     -0.09908749     -1.07723149
S       4.71520881      0.98469555     -1.35575564
C       4.65289244      1.06227198     -3.16535880
C       2.10167675      0.52037057     -0.72541699
H      -1.72111740     -1.78810545      3.80650703
H      -1.60708198     -3.23554510      2.81202343
H      -3.15239500     -2.82901983      3.59641598
H      -3.20280852     -2.25916965      1.16793360
H      -3.33771647     -0.78854356      2.16605502
H      -3.45091572      2.24210555     -0.67588717
H      -1.70079869      2.57279847     -0.62352543
H      -1.95515778      3.63055410      1.60758910
H      -3.00967167      4.43589100      0.42257089
H      -3.68211490      3.28342640      1.60261664
H       0.12546164     -2.23074204     -0.39754098
H       3.69846663      1.48135980     -3.49463133
H       5.45752086      1.70583675     -3.52682354
H       4.78026516      0.07073723     -3.60465974
H       2.05257730      1.60435644     -0.63129998
