41
CCC(C)c1cc([N+](=O)[O-])cc([N+](=O)[O-])c1OC(=O)C=C(C)C
C      -0.35643819     -3.44936107     -0.19419706
C      -0.96266326     -2.15025379      0.31825593
C      -1.29658843     -1.14759049     -0.80453067
C      -2.38348480     -1.66801804     -1.75455271
C      -1.67503255      0.20406126     -0.20182042
C      -2.91059793      0.37234815      0.45358350
C      -3.26215835      1.60919111      1.02082995
N      -4.56197564      1.75534369      1.69189041
O      -5.26455134      0.74263643      1.81242311
O      -4.87778769      2.88491132      2.08867497
C      -2.39563375      2.70452661      0.94698156
C      -1.15994404      2.54455653      0.30638622
N      -0.27259310      3.70295760      0.22282558
O       0.44747764      3.81266821     -0.77887992
O      -0.32212232      4.52216003      1.15039110
C      -0.79114841      1.30356861     -0.24402845
O       0.45027920      1.12285863     -0.86713000
C       1.46669171      0.88599124      0.04523517
O       1.35631377      0.84750186      1.25932646
C       2.71585977      0.69806191     -0.72972791
C       3.80038110      0.01402297     -0.31667119
C       3.91729427     -0.74010948      0.98028960
C       5.03218421     -0.04885478     -1.18153225
H      -1.07194955     -4.01643475     -0.79652069
H      -0.05892451     -4.08191707      0.64840987
H       0.53338702     -3.25505747     -0.80126920
H      -0.24722932     -1.69416001      1.01461781
H      -1.85993023     -2.38331324      0.90500181
H      -0.39858522     -1.02226375     -1.42144529
H      -3.28584297     -1.97846085     -1.21746674
H      -2.67109962     -0.89801051     -2.47942083
H      -2.02469097     -2.53217012     -2.32297643
H      -3.59727648     -0.47097206      0.52696224
H      -2.67240033      3.66505191      1.37992028
H       2.71670005      1.19061621     -1.69839191
H       4.36851266     -1.72303787      0.80438214
H       4.55552320     -0.19082944      1.67951320
H       2.95550666     -0.92895449      1.46162681
H       4.92038442      0.52591997     -2.10703024
H       5.89425156      0.35637980     -0.64152663
H       5.24990179     -1.08556475     -1.45847128
