21
Nc1ccc(C(=O)O)c(S(=O)(=O)O)c1
N       3.36374307      0.05606748     -0.96710029
C       2.04154684      0.25315936     -0.56447418
C       1.40369878      1.46888889     -0.81863994
C       0.04457399      1.63920154     -0.53571685
C      -0.71198767      0.57424249     -0.02809856
C      -2.13349420      0.80197335      0.31152016
O      -2.72761301      0.28661169      1.24171482
O      -2.72457230      1.66033341     -0.53316612
C      -0.08859379     -0.66215803      0.17213318
S      -1.01845241     -2.08312653      0.68581780
O      -0.09593273     -3.18975386      0.82791505
O      -2.16721928     -2.17572738     -0.18861056
O      -1.54991670     -1.71273783      2.16434968
C       1.27556402     -0.82491925     -0.11819066
H       3.93204584      0.89739810     -0.98666718
H       3.83704632     -0.71660110     -0.50689283
H       1.96260175      2.30052473     -1.24232651
H      -0.41526809      2.60800889     -0.72162509
H      -3.66470590      1.70024244     -0.25685998
H      -2.30813350     -1.08092815      2.06939108
H       1.74506897     -1.80070024     -0.00447302
