16
Cc1cc(Cl)ccc1O
C      -2.02622347     -0.94381261      0.11144269
C      -0.62194514     -0.41763595      0.04414965
C       0.46902782     -1.29730011      0.09200394
C       1.77259817     -0.80330129      0.02910534
Cl      3.10315934     -1.89327842      0.08880016
C       2.00674059      0.56609546     -0.08172093
C       0.92911446      1.45139420     -0.13026431
C      -0.37316199      0.95530195     -0.06722750
O      -1.43779051      1.80998529     -0.11363610
H      -2.04213320     -2.03547850      0.19658313
H      -2.54294938     -0.53470215      0.98560298
H      -2.57643370     -0.67312361     -0.79549126
H       0.30310519     -2.36837352      0.17836329
H       3.02287518      0.94784773     -0.13049222
H       1.12260409      2.51610632     -0.21664747
H      -1.10858744      2.72027520     -0.19057138
