19
CC1=NC(=O)C(C(N)=O)C(=O)N1
C      -2.97337267     -0.27477770     -0.89245431
C      -1.59188873     -0.31586415     -0.30327816
N      -0.75986006     -1.22295492     -0.67633835
C       0.49676178     -1.26981176     -0.12668662
O       1.24161379     -2.23213806     -0.31750756
C       1.00316230     -0.10965148      0.67362966
C       1.98474935      0.68427016     -0.14393722
N       3.28346802      0.25345967     -0.10808031
O       1.67486603      1.65839215     -0.82297968
C      -0.08759089      0.75003062      1.22108926
O       0.07621952      1.53139625      2.15633802
N      -1.30775910      0.63472693      0.62553822
H      -3.54978646      0.57416498     -0.51568625
H      -2.89839663     -0.19846658     -1.98114459
H      -3.49790679     -1.20120060     -0.64096052
H       1.51752601     -0.53119098      1.54821156
H       3.91609210      0.72051531     -0.74793759
H       3.49233618     -0.72018635      0.08842986
H      -2.02023374      1.26928650      0.96375459
