26
CC(C)(C)c1ccc(C=O)cc1
C      -2.18041512     -0.20137701     -1.25312834
C      -1.54837131      0.02963243      0.13650907
C      -2.13261495      1.34901175      0.69009294
C      -1.99102858     -1.10083652      1.09046584
C      -0.01332254      0.03129256      0.01309462
C       0.65689434     -1.10850128     -0.47850509
C       2.04957072     -1.14310277     -0.60434115
C       2.80136795     -0.02938750     -0.23767346
C       4.27098214     -0.06757357     -0.37111026
O       4.98061219      0.88215437     -0.06396903
C       2.16775151      1.11123401      0.25129234
C       0.77401107      1.13880075      0.37451283
H      -3.27502428     -0.17219755     -1.19930340
H      -1.90689302     -1.17393537     -1.67668635
H      -1.86072816      0.56908479     -1.96479367
H      -3.22596559      1.29863967      0.75911496
H      -1.89009234      2.20043306      0.04354350
H      -1.75649928      1.56596763      1.69668564
H      -3.07921373     -1.10210954      1.22377300
H      -1.71360633     -2.09215089      0.71574467
H      -1.53381377     -0.98337227      2.08012974
H       0.09501840     -1.99318438     -0.77262570
H       2.52651317     -2.04112992     -0.98753918
H       4.70458339     -1.00209577     -0.76482137
H       2.75225294      1.98312447      0.53867104
H       0.32803119      2.05157885      0.76086681
