28
O=CCCCCCCCC(=O)O
O       2.88336911      1.35433852     -2.48095065
C       2.39734868      1.47682139     -1.36036133
C       2.97415414      0.81336885     -0.13566747
C       1.89507801      0.06038520      0.63604286
C       1.45569987     -1.22019362     -0.08209763
C       0.32410222     -1.96543173      0.63568963
C      -0.97732225     -1.17493804      0.81285578
C      -1.62341645     -0.75675290     -0.51291009
C      -2.84685608      0.13564488     -0.30213441
C      -2.46798873      1.54483018      0.07619806
O      -1.35461957      2.04297125      0.06801329
O      -3.54394823      2.27379856      0.43187125
H       1.52340846      2.12962487     -1.19017500
H       3.39098786      1.60743146      0.49305422
H       3.79113127      0.14679674     -0.43020321
H       1.04076330      0.72624106      0.79282934
H       2.28432022     -0.20383520      1.62653569
H       2.31718924     -1.89612683     -0.15589903
H       1.15851998     -0.99884670     -1.11255037
H       0.67815561     -2.27685206      1.62630090
H       0.10772872     -2.88689110      0.08104908
H      -1.68714122     -1.80424535      1.36495530
H      -0.79702748     -0.30149504      1.44787763
H      -1.93224683     -1.66058784     -1.05195669
H      -0.90349690     -0.23481438     -1.15149462
H      -3.49330198     -0.28462090      0.47574626
H      -3.41356485      0.19233605     -1.23822424
H      -3.18102612      3.16104269      0.63560544
