33
CCOC(=O)N(c1ccccc1)c1ccccc1
C       4.09190102     -1.89005432      0.51367038
C       3.53523781     -0.50030968      0.27340328
O       2.10813913     -0.59907323      0.20888238
C       1.45390153      0.58838405      0.01077826
O       2.06970287      1.64567374     -0.10547727
N       0.05587814      0.44352793     -0.07129234
C      -0.76528115      1.52095242     -0.56624143
C      -0.28530790      2.40906335     -1.54182727
C      -1.07843930      3.45682173     -2.02292104
C      -2.36671512      3.64212177     -1.53175874
C      -2.86130486      2.78310034     -0.55627985
C      -2.06770084      1.73558676     -0.07699464
C      -0.60792381     -0.75381419      0.36440049
C      -0.22269228     -1.40474384      1.54633822
C      -0.86854527     -2.57139691      1.96604394
C      -1.90587329     -3.10772753      1.20743126
C      -2.29809903     -2.48007489      0.02824164
C      -1.65372796     -1.31287511     -0.39077222
H       3.79340000     -2.56934868     -0.29167695
H       3.69595422     -2.30784174      1.44528641
H       5.18368182     -1.86864679      0.57164059
H       3.92178472     -0.10530899     -0.67261575
H       3.82459234      0.16052106      1.09808385
H       0.70847443      2.29193104     -1.96715585
H      -0.68310415      4.12721191     -2.78195461
H      -2.97999200      4.45883891     -1.90305537
H      -3.86139103      2.93096193     -0.15696257
H      -2.47764387      1.11023625      0.71283647
H       0.56854523     -0.99845785      2.17155715
H      -0.56049819     -3.05863698      2.88766970
H      -2.40554585     -4.01640959      1.53330177
H      -3.10065041     -2.90109576     -0.57194571
H      -1.96075696     -0.85911712     -1.33063420
