56
CC(c1ccccc1)c1ccc(Nc2ccc(C(C)c3ccccc3)cc2)cc1
C      -4.97354219      2.15997716     -1.99120208
C      -4.99138734      1.64773577     -0.54329005
C      -6.20701577      0.75190423     -0.32868048
C      -6.26536926     -0.54410161     -0.86595497
C      -7.39034836     -1.34677578     -0.66838003
C      -8.47240894     -0.86455676      0.06440997
C      -8.43108936      0.42054442      0.60059206
C      -7.30661412      1.22484876      0.40511467
C      -3.69237025      1.00460742     -0.06425192
C      -3.47657620      0.85773215      1.31511910
C      -2.30529987      0.26815918      1.80352345
C      -1.31417250     -0.20021734      0.93372123
N      -0.13851488     -0.74999455      1.47209979
C       1.17231259     -0.84176267      0.97455837
C       1.68694640      0.03056208      0.01381088
C       2.98728442     -0.12486053     -0.48061568
C       3.81341248     -1.16966057     -0.03636832
C       5.22369303     -1.28838415     -0.60888422
C       5.89430469     -2.65716502     -0.41909500
C       6.15544151     -0.18579194     -0.11668099
C       6.37784642      0.02783340      1.25317279
C       7.24177197      1.03564395      1.68560751
C       7.89717872      1.84013029      0.75623369
C       7.68975918      1.63805027     -0.60637366
C       6.82545900      0.63131324     -1.04121053
C       3.29741764     -2.04561435      0.92637635
C       1.99568683     -1.88380523      1.41849559
C      -1.52807836     -0.05154740     -0.43876067
C      -2.70043990      0.53503333     -0.93417635
H      -4.13331489      2.84395805     -2.15548810
H      -5.89586041      2.70717254     -2.21928764
H      -4.89417772      1.34520526     -2.71984507
H      -5.11517692      2.54677172      0.07886399
H      -5.42944475     -0.94034957     -1.43831560
H      -7.41979751     -2.34964158     -1.08605057
H      -9.34726242     -1.49051996      0.21777634
H      -9.27545989      0.79784078      1.17138792
H      -7.29579523      2.22600120      0.83008430
H      -4.22651398      1.20217936      2.02472872
H      -2.17206982      0.18692204      2.87917593
H      -0.25716529     -1.14909195      2.39571488
H       1.09533751      0.87084419     -0.33883378
H       3.35665678      0.58978260     -1.21377989
H       5.10424294     -1.17473528     -1.69676073
H       6.10666448     -2.87387931      0.63394141
H       6.84990421     -2.69745863     -0.95516787
H       5.26138108     -3.46208028     -0.80930679
H       5.87246639     -0.58671504      1.99476686
H       7.40015587      1.19366779      2.74906105
H       8.56836207      2.62509190      1.09413200
H       8.20090706      2.26525623     -1.33198835
H       6.67890218      0.48930085     -2.10954844
H       3.89057642     -2.86946607      1.31328669
H       1.62481506     -2.59510220      2.15239735
H      -0.79635651     -0.42570948     -1.14987672
H      -2.81726428      0.60491710     -2.01214290
