20
Cc1ccccc1S(N)(=O)=O
C       0.01273668      2.09135310      0.19080265
C      -0.58360405      0.71838182      0.05704220
C      -1.96459873      0.56749489      0.27547170
C      -2.58460543     -0.67695649      0.14594513
C      -1.83833174     -1.79448064     -0.21306162
C      -0.46971477     -1.66852484     -0.44464002
C       0.16009417     -0.42054603     -0.30961018
S       1.90332795     -0.34189195     -0.65245906
N       2.56559314     -0.16009647      0.88118269
O       2.36343732     -1.63517861     -1.10614399
O       2.20688068      0.86995515     -1.37590390
H       0.23391678      2.50748125     -0.79646577
H       0.91963772      2.07292908      0.80094876
H      -0.68092891      2.77760778      0.68958224
H      -2.57427863      1.42728664      0.54886127
H      -3.65362728     -0.77080244      0.32141693
H      -2.32187583     -2.76247590     -0.31854445
H       0.09775186     -2.55116182     -0.73355841
H       3.13819583     -0.97501297      1.10302071
H       3.06999322      0.72463846      0.93611312
