30
CCOP(=S)(OCC)SCSCC
C      -3.29201092     -2.55812929     -0.85967725
C      -2.48204802     -1.38675330     -1.37813988
O      -1.41844476     -1.14219019     -0.47127792
P      -0.58163089      0.24901311     -0.57573109
S       0.29390636      0.46630591     -2.30606489
O      -1.79281397      1.30479526     -0.32726951
C      -1.50665937      2.69402330     -0.32683708
C      -2.64674853      3.41931720      0.35801890
S       0.61606742      0.27801880      1.15083242
C       1.53304053     -1.26285223      0.98290761
S       2.69276125     -1.51515191      2.35673058
C       3.99297582     -0.30894802      1.93312920
C       4.82899883     -0.75299496      0.74568957
H      -4.12214839     -2.78766125     -1.53351604
H      -2.66200871     -3.44837448     -0.75848130
H      -3.69425747     -2.33779530      0.13476651
H      -3.12191967     -0.50368836     -1.46586050
H      -2.07112932     -1.62820525     -2.36279811
H      -0.56913359      2.89395900      0.19961798
H      -1.41257533      3.04040965     -1.36033379
H      -2.47267260      4.49889958      0.36844074
H      -3.59437773      3.21857963     -0.15202907
H      -2.75992672      3.06999950      1.38931114
H       2.05603187     -1.30079413      0.02531506
H       0.81881902     -2.09111722      0.99814518
H       4.64287850     -0.21642189      2.80971016
H       3.55660619      0.67801039      1.75484657
H       5.64664298     -0.04280000      0.58373739
H       5.27693250     -1.73786270      0.91501983
H       4.24484471     -0.78959087     -0.17828621
