41
CC(=O)C(N=Nc1ccc(C)cc1[N+](=O)[O-])C(=O)Nc1ccccc1
C      -1.18333257      3.23956952      2.27208752
C      -1.18547779      1.86444410      2.89430363
O      -1.15005388      1.74002647      4.12299617
C      -1.19443516      0.65293352      1.98279550
N       0.11720565      0.62145247      1.30114365
N       0.92992992     -0.14276488      1.86694180
C       2.13883248     -0.17162056      1.14762473
C       3.08635448      0.84032829      1.35657599
C       4.31853762      0.82228511      0.69333854
C       4.64399223     -0.22115440     -0.18266840
C       5.95858750     -0.21511002     -0.90692910
C       3.71088363     -1.23958581     -0.40201907
C       2.47601162     -1.20619534      0.26655422
N       1.53565234     -2.28748641      0.02429741
O       0.34533343     -1.99419824     -0.16988047
O       1.99387076     -3.43772319     -0.00568562
C      -2.28588589      0.68174396      0.92118460
O      -3.20761986      1.49231437      0.97948676
N      -2.14260178     -0.30807536     -0.04269592
C      -3.00664371     -0.58827360     -1.12416270
C      -4.20068787      0.09161242     -1.37121085
C      -5.00242494     -0.25259488     -2.46550988
C      -4.61772042     -1.27997296     -3.32281586
C      -3.42927986     -1.96460402     -3.08763959
C      -2.63090133     -1.62101477     -1.99347617
H      -0.80001596      3.20552835      1.24940638
H      -0.53005950      3.89504869      2.85536268
H      -2.19897639      3.64175200      2.26938192
H      -1.36020614     -0.24346003      2.59584231
H       2.86312932      1.65129176      2.04804213
H       5.02837232      1.62880566      0.87314169
H       6.20870046     -1.21386486     -1.28130267
H       6.76622388      0.09363645     -0.23489090
H       5.91242184      0.47347254     -1.75604027
H       3.94541723     -2.05553241     -1.08387978
H      -1.30295170     -0.88664328      0.01253239
H      -4.54547162      0.89558930     -0.73058953
H      -5.93004810      0.28616118     -2.64311833
H      -5.24197594     -1.54436960     -4.17144036
H      -3.12238300     -2.76771574     -3.75292301
H      -1.71030333     -2.17603581     -1.83311376
