52
COc1ccc(C2(c3cccc(-c4cncnc4)c3)N=C(N)C(C(C)C)=N2)cc1
C      -2.09470650      5.73046887     -1.51780944
O      -2.30159467      5.13452726     -0.24367616
C      -1.92685555      3.82617612     -0.10735607
C      -1.39089635      3.01698658     -1.10748145
C      -1.04868244      1.68715768     -0.83058699
C      -1.23990720      1.13506074      0.44829742
C      -0.83810420     -0.32067008      0.76342672
C       0.59341242     -0.34713213      1.33768786
C       0.82593688     -0.33431250      2.72171863
C       2.12495136     -0.33629699      3.22754349
C       3.21581907     -0.34224239      2.35767562
C       3.03076870     -0.34275867      0.96658536
C       4.17494769     -0.33917188      0.04941484
C       5.24641112     -1.20971072      0.16813702
N       6.31647114     -1.23180785     -0.65803261
C       6.29678281     -0.33313916     -1.65223738
N       5.32664255      0.56208349     -1.88530709
C       4.28743474      0.53415795     -1.02067599
C       1.71132188     -0.34352238      0.47818242
N      -1.80982224     -0.90831760      1.74696509
C      -2.32119240     -1.92631475      1.14902691
N      -3.27285342     -2.73235628      1.69537717
C      -1.73896374     -2.08369409     -0.21120564
C      -2.17284915     -3.18487024     -1.13579591
C      -3.36801683     -2.71164894     -1.95617169
C      -1.02545768     -3.61706530     -2.04502210
N      -0.89136730     -1.15147199     -0.48609602
C      -1.77240415      1.96731873      1.44678595
C      -2.11461126      3.29390265      1.16858798
H      -1.03262517      5.73511133     -1.78457634
H      -2.69437801      5.23386147     -2.28772599
H      -2.42673267      6.77134792     -1.45796045
H      -1.22249469      3.38485569     -2.11397598
H      -0.62520437      1.07974417     -1.62834209
H      -0.01098352     -0.32061912      3.41720752
H       2.28648957     -0.32582222      4.30219519
H       4.21797031     -0.32626666      2.78210237
H       5.27648225     -1.95742328      0.95653325
H       7.14281917     -0.33054173     -2.33051544
H       3.51908676      1.27760090     -1.22065708
H       1.53836738     -0.35496220     -0.59800984
H      -3.95863050     -3.13011258      1.06491091
H      -3.69429217     -2.32186275      2.52348532
H      -2.46931751     -4.05017173     -0.53251456
H      -4.19673356     -2.40957029     -1.30680018
H      -3.72858640     -3.50884911     -2.61432208
H      -3.10751604     -1.84825009     -2.57837428
H      -0.15311967     -3.91864704     -1.45462664
H      -0.70979264     -2.80589970     -2.71100906
H      -1.32367231     -4.46731399     -2.66719655
H      -1.92245197      1.58457920      2.45411132
H      -2.52729950      3.91787565      1.95711298
