28
COc1ccccc1NC(=O)CC(C)=O
C      -2.25943970      2.97161231      0.52546544
O      -1.36189173      1.87025509      0.59855364
C      -1.86862805      0.62935403      0.28413853
C      -3.20272031      0.36882205     -0.04243532
C      -3.60816143     -0.93302376     -0.34238530
C      -2.68612966     -1.97613902     -0.31596746
C      -1.35148063     -1.72617228      0.01014138
C      -0.93295716     -0.42851855      0.31030912
N       0.39734378     -0.09277683      0.65011566
C       1.49859777     -0.91843220      0.71056965
O       1.53326228     -2.11710296      0.44857678
C       2.75573061     -0.19671513      1.11760655
C       3.57394914      0.23305094     -0.06802852
C       4.14883407     -0.84228986     -0.95202493
O       3.75992946      1.42753479     -0.30773793
H      -1.69731826      3.87671057      0.77495502
H      -2.65383890      3.09413681     -0.48864836
H      -3.06754428      2.87009955      1.25719223
H      -3.95185444      1.15247462     -0.07147941
H      -4.64604887     -1.13430756     -0.59640993
H      -3.00288618     -2.98997522     -0.54871178
H      -0.66422648     -2.56574386      0.02274979
H       0.52207321      0.90052823      0.83296137
H       3.35968929     -0.85502569      1.75139495
H       2.51559254      0.68249011      1.72613298
H       4.64204591     -1.60065407     -0.33874304
H       3.35488077     -1.29609782     -1.54926907
H       4.89319724     -0.40409426     -1.62289051
