38
COS(=O)(=O)[O-].C[N+](CCO)(CCO)CCO
C      -1.25621324      0.04824157      0.22739348
O      -0.12693453      0.80536224     -0.14619599
S       1.29724987      0.01508499     -0.24853798
O       2.23587716      1.05870268     -0.64660137
O       1.05424913     -1.00634086     -1.26365928
O       1.50129601     -0.50681446      1.10009751
C       0.86480424      0.28964133     -1.34600887
N       0.04852876      0.04989208     -0.07965312
C      -1.36887129     -0.49835294     -0.45708704
C      -1.37911143     -1.91453941     -1.06595104
O      -1.10776862     -2.90407399     -0.07808107
C      -0.11191776      1.37861765      0.71483402
C      -0.92635938      2.47532528      0.00298615
O      -2.31247704      2.15215562     -0.01826772
C       0.76550294     -1.00255178      0.83116050
C       2.06001192     -0.51947427      1.51330729
O       3.01089028     -0.05426027      0.56348636
H      -1.12741314     -0.38112293      1.22520486
H      -1.45349408     -0.74552354     -0.49895905
H      -2.12461718      0.71241030      0.25125781
H       1.24126963     -0.66692678     -1.71733515
H       0.21576555      0.74709522     -2.09824203
H       1.68740557      0.97287764     -1.12571575
H      -1.96038038     -0.48023905      0.46482940
H      -1.78624861      0.18818654     -1.19806781
H      -0.65632538     -2.01679935     -1.87974318
H      -2.37801433     -2.11675930     -1.46693296
H      -1.31270804     -3.77382142     -0.47300174
H       0.89560689      1.76192751      0.90155248
H      -0.58716597      1.10976066      1.66508307
H      -0.58384567      2.64464695     -1.02115216
H      -0.81595081      3.41174597      0.56012005
H      -2.79599297      2.95244932     -0.30175982
H       1.01814360     -1.84862358      0.18522016
H       0.04368320     -1.30660215      1.59674479
H       2.50613378     -1.36046713      2.05530435
H       1.86453233      0.27440564      2.23968218
H       3.86085897      0.05476400      1.03268865
