26
CCC(CC)COC(C)=O
C       1.88490154     -2.01506108     -0.67119083
C       1.53588317     -1.37838885      0.66703772
C       0.56728880     -0.18081211      0.59230673
C       1.08320697      0.99534066     -0.26530307
C       2.42790077      1.54359967      0.19149950
C      -0.82577454     -0.62688013      0.11053346
O      -1.75582075      0.44974933      0.30502472
C      -3.02445072      0.17417656     -0.10309062
C      -3.90845107      1.35879060      0.13952225
O      -3.39978360     -0.87993321     -0.59595589
H       2.56249169     -2.86085753     -0.51414802
H       0.99496106     -2.39566545     -1.18034341
H       2.38998030     -1.30772456     -1.33489566
H       1.09679769     -2.14914043      1.31322670
H       2.46353058     -1.07015714      1.16316681
H       0.44851540      0.20338643      1.61537498
H       1.15269525      0.69986518     -1.31862669
H       0.35720936      1.81673612     -0.22479529
H       2.68067991      2.44109991     -0.38237968
H       3.23211024      0.81842256      0.03781459
H       2.40180458      1.81606609      1.25120378
H      -0.80006409     -0.89290353     -0.95266496
H      -1.16291870     -1.49222688      0.69367275
H      -3.93702834      1.58734912      1.20783225
H      -4.92389639      1.12777703     -0.19490311
H      -3.54176910      2.21739164     -0.42858830
