39
NC1CN(c2cc3c(cc2F)c(=O)c(C(=O)O)cn3C2CC2)C1
N       5.43361863     -0.36291037      0.63970223
C       4.50110154      0.37033018      1.51727645
C       3.12512152     -0.32616836      1.51441910
N       2.77094683      0.51936246      0.40034393
C       1.47330539      0.78206824     -0.09265317
C       0.45543671     -0.17852213      0.05079389
C      -0.84669926      0.03783555     -0.43303824
C      -1.10879785      1.25079947     -1.09769484
C      -0.11462137      2.21739362     -1.26223592
C       1.15932667      1.97419967     -0.76301165
F       2.09419286      2.91962326     -0.94460690
C      -2.45970108      1.49989586     -1.65358612
O      -2.74197207      2.56027098     -2.20817906
C      -3.47184953      0.42840190     -1.54785901
C      -4.82838701      0.52246587     -2.12477939
O      -5.65360737     -0.37651448     -2.04981452
O      -5.09310009      1.69039125     -2.74898918
C      -3.11631576     -0.68361183     -0.88732681
N      -1.89526530     -0.91313536     -0.27737031
C      -1.66613509     -2.22954121      0.34961496
C      -1.35419973     -2.36155523      1.82063731
C      -2.66276895     -2.85860820      1.29445524
C       3.78852035      1.48731560      0.72684617
H       6.25698544      0.18034298      0.38333628
H       4.99834845     -0.62475615     -0.24827977
H       4.90759526      0.64317791      2.49353429
H       3.10388452     -1.39379444      1.27899051
H       2.51216985     -0.12324915      2.40007106
H       0.69859551     -1.11487022      0.54326402
H      -0.31383560      3.15214140     -1.77824963
H      -4.34460992      2.33608297     -2.73414565
H      -3.81939465     -1.50893754     -0.78680117
H      -1.15348096     -2.91133873     -0.32648385
H      -0.61395266     -3.09509944      2.11732811
H      -1.36734223     -1.46795555      2.43395733
H      -3.55218182     -2.30483003      1.57166355
H      -2.81280952     -3.93004207      1.22830223
H       4.30870087      1.88909749     -0.14690604
H       3.40317742      2.30424379      1.34747457
