27
Cc1cc(C)c(C)c(C)c1C
C       2.49574556     -1.87772839     -0.00123862
C       1.22562316     -1.06882892      0.00307170
C       0.00289472     -1.75165269      0.03854201
C      -1.22217228     -1.07210766      0.03788402
C      -2.48973277     -1.88440581      0.06966322
C      -1.23270837      0.33749497     -0.00833255
C      -2.54459590      1.08726401     -0.02816600
C      -0.00125249      1.04778632      0.01062358
C      -0.00288252      2.56097475      0.03856607
C       1.23106468      0.34079525     -0.04337222
C       2.53984354      1.09407629     -0.10048122
H       2.98722664     -1.80474055     -0.97646678
H       3.17565625     -1.52982264      0.78318074
H       2.29968824     -2.93756515      0.19445427
H       0.00473552     -2.84041110      0.06545630
H      -3.14799456     -1.53828815      0.87310863
H      -3.00893731     -1.81277529     -0.89119342
H      -2.28535270     -2.94370503      0.25966725
H      -3.36888664      0.47743670     -0.40813090
H      -2.79835061      1.42223495      0.98230747
H      -2.49179136      1.95232097     -0.69739288
H      -0.01793832      2.95315003     -0.98282158
H       0.87182885      2.95782443      0.56283375
H      -0.86338199      2.95549895      0.58752442
H       2.82132603      1.42978623      0.90237472
H       3.35463085      0.48643952     -0.50373897
H       2.46571380      1.95894803     -0.76792303
