27
O=C1CCC(C(=O)Nc2ccccc2)N1
O      -3.92889667     -1.11706628     -2.00120003
C      -3.36356432     -0.44201069     -1.16072134
C      -3.85284135     -0.14329108      0.23180507
C      -2.65140087      0.53028956      0.88714226
C      -1.88152988      1.13627349     -0.27782803
C      -0.38073320      1.24487339      0.03539519
O       0.05684834      2.20882639      0.65611696
N       0.32355175      0.11365584     -0.34152829
C       1.69347242     -0.15592378     -0.16764646
C       2.59142148      0.72543239      0.43615591
C       3.94060682      0.38073759      0.56890650
C       4.40191684     -0.84654838      0.09901085
C       3.51425529     -1.73225448     -0.50517971
C       2.16649859     -1.38808371     -0.63787008
N      -2.17166581      0.22132004     -1.36069822
H      -4.70577097      0.53898668      0.16769030
H      -4.13773375     -1.06025809      0.75286685
H      -2.94772535      1.28086622      1.62662736
H      -2.04946570     -0.22253073      1.41239966
H      -2.26865904      2.11990676     -0.56521007
H      -0.22739609     -0.60111854     -0.80669385
H       2.27619791      1.69217953      0.81559037
H       4.62953174      1.07646091      1.04159069
H       5.45095708     -1.11052401      0.20432059
H       3.86964694     -2.69124443     -0.87322062
H       1.49493637     -2.09854994     -1.11294003
H      -1.84245858      0.33959533     -2.31320584
