24
CC(C)CC(C)CO
C       2.39743311      0.63360373      1.29111135
C       1.33269867      0.49358879      0.19865284
C       1.94618566     -0.16539371     -1.03697266
C       0.12567057     -0.29247078      0.74910876
C      -1.04569219     -0.51274389     -0.23017978
C      -2.12636416     -1.36252005      0.45351688
C      -1.63871824      0.80708162     -0.73831119
O      -2.69223232      0.54495309     -1.65784056
H       3.24538745      1.22779938      0.93411841
H       1.98648995      1.13680637      2.17276384
H       2.77761907     -0.34470360      1.60454391
H       1.01261255      1.50625333     -0.07228368
H       2.22854055     -1.20395298     -0.83408642
H       1.24854688     -0.15899573     -1.87978441
H       2.84510336      0.37214957     -1.35787887
H       0.47680146     -1.27328649      1.09792599
H      -0.25315422      0.22831294      1.63910977
H      -0.69763990     -1.09360302     -1.09308275
H      -2.93754490     -1.60706368     -0.23992099
H      -2.55964945     -0.83682250      1.31124907
H      -1.70675512     -2.30844830      0.81259846
H      -2.03972727      1.40192677      0.08922918
H      -0.88740841      1.40144557     -1.26541474
H      -3.03820308      1.40608357     -1.94817242
