54
CC(=O)C1CCC2C3CCC4=CC(=O)CC(O)C4(C)C3CCC12C
C       5.57300012      0.15702918      1.21270824
C       4.48513930      0.62686360      0.28097982
O       4.42180449      1.80387905     -0.07375332
C       3.47933678     -0.42794301     -0.18700897
C       3.27005124     -0.31082398     -1.70236236
C       1.91954423      0.38166457     -1.90499767
C       1.39399610      0.75428638     -0.50545550
C      -0.14834683      0.83994479     -0.37339475
C      -0.73459056      1.83354148     -1.40833958
C      -2.11026076      1.44201768     -1.93743369
C      -2.93682004      0.89995790     -0.80883596
C      -3.98001253      1.60461171     -0.34071126
C      -4.76387944      1.14652577      0.82323163
O      -5.73400034      1.80539082      1.19128876
C      -4.37291892     -0.13649960      1.49747833
C      -2.89538971     -0.47308567      1.29862526
O      -2.69521660     -1.77500547      1.85942280
C      -2.44242281     -0.41984272     -0.20159681
C      -3.10114161     -1.58361444     -0.98796058
C      -0.86239875     -0.54054014     -0.40420093
C      -0.17943523     -1.53360369      0.55498731
C       1.32422608     -1.64511264      0.32148279
C       2.05968741     -0.28466374      0.42192164
C       2.08231802      0.18651222      1.88620761
H       6.18134754      1.00930474      1.52805702
H       6.21176174     -0.56169220      0.69353861
H       5.12939070     -0.30396815      2.09825885
H       3.91340788     -1.40863785      0.04496302
H       4.07430183      0.23834577     -2.20419997
H       3.23731620     -1.30771321     -2.15798890
H       2.04318810      1.27334685     -2.52939276
H       1.23762899     -0.29088659     -2.43616541
H       1.79066058      1.75186394     -0.26782940
H      -0.35133445      1.26820538      0.61924529
H      -0.79513402      2.82188117     -0.93251355
H      -0.07650800      1.97027576     -2.27166951
H      -2.57898062      2.31344826     -2.41031913
H      -2.01580650      0.68473426     -2.72480041
H      -4.29357801      2.54902623     -0.77292770
H      -4.57293958     -0.03812883      2.57161190
H      -5.02171645     -0.93976910      1.13117751
H      -2.28648720      0.23402448      1.87718676
H      -2.90005515     -1.72592409      2.80981100
H      -2.82709730     -1.55610601     -2.04938652
H      -2.79228644     -2.55963320     -0.59944004
H      -4.19488703     -1.54081815     -0.94531693
H      -0.70073791     -0.94269036     -1.41544338
H      -0.33945709     -1.23801472      1.59565996
H      -0.61913272     -2.53005553      0.43219217
H       1.74911799     -2.34953816      1.04805578
H       1.48062522     -2.10454898     -0.66225030
H       2.62344106     -0.52735474      2.51673766
H       1.07605179      0.29636020      2.30103734
H       2.56562924      1.16317278      1.99373072
