20
C[C@H](N)c1ccccc1
C      -1.96990159      0.26245799     -1.50085497
C      -1.51285681     -0.30891734     -0.15734631
N      -2.23246538      0.35302559      0.93292766
C      -0.01403081     -0.21196033      0.05805786
C       0.69081279      0.98688026     -0.13763857
C       2.06786947      1.05080623      0.08753135
C       2.75879491     -0.07913129      0.51830674
C       2.07361863     -1.27319300      0.72800535
C       0.69689954     -1.33856962      0.50320064
H      -3.04013566      0.08161571     -1.65341149
H      -1.80660904      1.34337912     -1.57379855
H      -1.43073278     -0.21191679     -2.32860618
H      -1.80308876     -1.36696222     -0.14776889
H      -1.90015415     -0.03243490      1.81664966
H      -1.97292444      1.33783394      0.95140763
H       0.17378010      1.88562608     -0.46469128
H       2.60067393      1.98475187     -0.07176520
H       3.83012753     -0.02828734      0.69337922
H       2.61031336     -2.15498102      1.06833218
H       0.18000916     -2.28002294      0.67808315
