24
C[C@H]1CCCC[C@@H]1C
C       0.23709908      2.32288547     -0.27603218
C      -0.12043109      0.90848081      0.18938129
C      -1.52929292      0.54832995     -0.31312609
C      -1.94417134     -0.85829092      0.10478027
C      -0.92814202     -1.89643619     -0.35221126
C       0.47328088     -1.56111062      0.14670973
C       0.91340678     -0.14796804     -0.27332872
C       2.31806088      0.12767110      0.27068222
H      -0.54930963      3.03331173      0.00137535
H       0.36052702      2.36344351     -1.36345278
H       1.16396614      2.67355358      0.18748128
H      -0.14535736      0.91605857      1.28783097
H      -1.56424081      0.62501778     -1.40759687
H      -2.26006891      1.26664572      0.07781345
H      -2.04710575     -0.90055784      1.19604320
H      -2.92737830     -1.09349530     -0.31811224
H      -0.92386190     -1.94878409     -1.44787457
H      -1.22254064     -2.88653633      0.01369392
H       1.17863253     -2.30381171     -0.24536055
H       0.49759446     -1.64799305      1.24070652
H       0.97094311     -0.12426975     -1.37032391
H       2.72729815      1.05840656     -0.13323873
H       2.31308889      0.20072193      1.36338611
H       3.00800274     -0.67527285     -0.01102704
