20
O=S(=O)([O-])OOS(=O)(=O)[O-].[NH4+].[NH4+]
O      -2.23954886      1.34151753     -0.81387234
S      -1.97475925     -0.02403545     -0.35348149
O      -2.64347434     -1.04396189     -1.16637641
O      -2.15624558     -0.21121199      1.08573572
O      -0.38123994     -0.26330680     -0.64184832
O       0.46888421      0.61508659      0.16871420
S       1.96770978     -0.00425750      0.39153538
O       1.77289530     -1.32740269      0.98369762
O       2.62025754      0.95074665      1.29174333
O       2.56552114     -0.03317444     -0.94584768
N       0.00000005      0.00000002     -0.00000014
N       0.00000003      0.00000006     -0.00000008
H      -0.16298241      0.89822980      0.46995246
H      -0.78774676     -0.20708872     -0.62514401
H       0.08383159     -0.74375775      0.70287409
H       0.86689752      0.05261665     -0.54768240
H      -0.53719005     -0.76194638     -0.43023248
H      -0.41854220      0.90157954     -0.25731823
H      -0.01467061     -0.10510802      1.02126011
H       0.97040283     -0.03452521     -0.33370931
