28
Nc1c2ccccc2nc2cccc(C(F)(F)F)c12
N      -0.18742025     -2.22089532     -0.06722709
C       0.10323890     -0.83499721     -0.14409247
C       1.45975004     -0.40387928     -0.21661749
C       2.58395402     -1.26728283     -0.30988743
C       3.88345471     -0.76685593     -0.39413803
C       4.08705861      0.60339851     -0.38444835
C       2.98969906      1.45872815     -0.28302813
C       1.68832821      0.98071859     -0.19377472
N       0.70295502      1.87529564     -0.07608741
C      -0.56288220      1.46272127      0.04957645
C      -1.51010917      2.46273892      0.19848418
C      -2.86250007      2.18412085      0.34933672
C      -3.28328711      0.86521914      0.35222212
C      -2.35704109     -0.18819595      0.20237810
C      -2.90767051     -1.60045328      0.21453073
F      -2.73830778     -2.27703723     -0.95460658
F      -4.26270099     -1.62804944      0.42670683
F      -2.40166495     -2.37709106      1.21773037
C      -0.95765117      0.10669683      0.04416851
H      -0.27099326     -2.53109955      0.90199473
H       0.47353739     -2.80892345     -0.56408910
H       2.46154779     -2.34616287     -0.31544741
H       4.72874435     -1.44627265     -0.46732112
H       5.09161392      1.01240276     -0.45047890
H       3.15404696      2.53418501     -0.26766118
H      -1.18096538      3.50045603      0.19823815
H      -3.57823560      2.99397873      0.46343295
H      -4.34649944      0.65653559      0.47010555
