16
NCc1ccncc1
N      -2.45181082      0.17590368      0.49207207
C      -1.61554023     -0.10388004     -0.66757158
C      -0.15503180     -0.06442344     -0.30979286
C       0.50307815     -1.21299770      0.13964407
C       1.84334084     -1.12052447      0.48138547
N       2.55917833      0.02175367      0.41308867
C       1.90448260      1.12157044     -0.01547103
C       0.56698842      1.13061778     -0.37970972
H      -2.23779686     -0.49861523      1.22543523
H      -2.19461940      1.08484432      0.87453577
H      -1.87556515     -1.08594946     -1.07908490
H      -1.82891627      0.62470886     -1.45816989
H      -0.01368534     -2.16341764      0.22264688
H       2.39252508     -1.98993346      0.83148177
H       2.50208548      2.02767910     -0.05883786
H       0.10128698      2.05266357     -0.71165207
