6
O=C(Cl)C(=O)Cl
O       1.13047748     -1.27300856     -0.39567014
C       0.74507900     -0.14052637     -0.13305585
Cl      1.74289934      1.27549150     -0.01795414
C      -0.74507355      0.14051889      0.13309540
O      -1.13044185      1.27296360      0.39591593
Cl     -1.74294041     -1.27543905      0.01766880
