19
CCc1ccccc1O
C      -2.40941206     -0.33528532      0.81351501
C      -1.57706897     -0.74201415     -0.39327474
C      -0.13271090     -0.33263710     -0.24552453
C       0.79924732     -1.24097829      0.27895266
C       2.13757743     -0.87596927      0.43734222
C       2.55946408      0.40255152      0.07796276
C       1.64397317      1.31931051     -0.43806333
C       0.30786953      0.94914129     -0.59399949
O      -0.59637451      1.84464187     -1.09261043
H      -2.02738112     -0.79488485      1.73142272
H      -2.40459420      0.75062700      0.95502268
H      -3.44802063     -0.65458241      0.68126958
H      -1.64003758     -1.82882681     -0.52952298
H      -1.99997083     -0.30515112     -1.30578135
H       0.48464471     -2.24114864      0.56855914
H       2.84963334     -1.59013035      0.84286153
H       3.60150214      0.68493535      0.20238565
H       1.98772371      2.31218152     -0.70999328
H      -0.13606465      2.67821926     -1.28052381
