29
CN(C)S(=O)(=O)N(SC(F)(Cl)Cl)c1ccccc1
C       2.69867419      0.75236922      0.24790032
N       2.13000621     -0.60329076      0.22309298
C       1.69858335     -1.09422170      1.53804658
S       1.22396564     -1.02397842     -1.14112879
O       2.00993461     -0.62939626     -2.29305525
O       0.79519191     -2.39815853     -0.99928893
N      -0.12668359      0.03294258     -1.01764284
S      -0.85849013      0.29440305     -2.58222553
C       0.16758628      1.66448289     -3.22463192
F       1.16601553      1.97938182     -2.35260384
Cl      0.85694817      1.26434141     -4.81034991
Cl     -0.86194692      3.12139597     -3.38997296
C      -1.07111894     -0.16250831      0.04684100
C      -1.77387218     -1.35639394      0.23708088
C      -2.72317312     -1.45775414      1.25658990
C      -2.99481977     -0.35956940      2.07137185
C      -2.32758721      0.84579618      1.86133262
C      -1.37760956      0.94725187      0.84367031
H       1.91921042      1.50058760      0.41667938
H       3.43490537      0.83292403      1.05444156
H       3.22424269      0.97717223     -0.68415908
H       1.03998029     -0.37772374      2.03487142
H       1.19401284     -2.06120219      1.47099737
H       2.58033653     -1.24320899      2.17029247
H      -1.60081085     -2.21653682     -0.40483548
H      -3.25858838     -2.39252171      1.40575169
H      -3.73885979     -0.43992145      2.86048160
H      -2.55365260      1.70819429      2.48352412
H      -0.87238099      1.89514323      0.67692851
