23
NNP(=S)(NN)c1ccccc1
N       2.88616307      1.49208331     -0.73681040
N       1.47534238      1.05178227     -0.72998785
P       0.95895515      0.10193198      0.57179982
S       1.63622268      0.68939875      2.31680369
N       1.54424672     -1.41758080      0.13058990
N       2.99457401     -1.51957969     -0.13060830
C      -0.82147939     -0.00706206      0.30875027
C      -1.70362513      0.78600094      1.06079350
C      -3.08301137      0.71503748      0.85476559
C      -3.60139227     -0.14493307     -0.11009426
C      -2.74243053     -0.93229052     -0.87244232
C      -1.36300445     -0.86220069     -0.66725632
H       3.13111422      1.85098356      0.19819248
H       2.99333079      2.30412955     -1.35409658
H       1.24943801      0.57188241     -1.60295666
H       1.25818597     -2.13064235      0.80357135
H       3.51955075     -1.34908211      0.73672026
H       3.27436705     -0.72161954     -0.72633344
H      -1.32139517      1.47079542      1.81575435
H      -3.75271398      1.33344191      1.44777348
H      -4.67540112     -0.19917213     -0.26954920
H      -3.14666650     -1.60095939     -1.62867993
H      -0.71037091     -1.48234523     -1.27919624
