42
CC(=O)CCC1C(=O)N(c2ccccc2)N(c2ccccc2)C1=O
C       5.62624986      0.31022887      1.24464088
C       4.69805264     -0.22379762      0.18595323
O       4.67456132     -1.42076413     -0.09733260
C       3.83868756      0.79710621     -0.53535063
C       2.65926537      0.19271063     -1.30119035
C       1.68343510     -0.65278442     -0.47394857
C       0.54451949     -1.12077402     -1.34706094
O       0.69756982     -1.77583592     -2.36854734
N      -0.64571826     -0.72785283     -0.71685249
C      -1.83733768     -1.51667991     -0.81217914
C      -2.71227725     -1.64668031      0.27920011
C      -3.87961658     -2.41150137      0.18398312
C      -4.19298416     -3.06139654     -1.00498216
C      -3.33935429     -2.94685572     -2.09720751
C      -2.17219795     -2.18138622     -2.00079842
N      -0.35781735      0.09023624      0.40587141
C      -1.18415387      1.19773812      0.78301985
C      -0.97538360      1.87312023      1.99434524
C      -1.78367755      2.95172394      2.36866096
C      -2.81582435      3.37359635      1.53686954
C      -3.04033058      2.71727650      0.33121017
C      -2.23163484      1.63889022     -0.04211059
C       1.02367573      0.10662314      0.64830541
O       1.64372591      0.66746921      1.54214030
H       6.19148513     -0.51352912      1.68927067
H       6.32590966      1.01846200      0.79425925
H       5.04399166      0.80054037      2.02872443
H       4.48997005      1.32549304     -1.24148277
H       3.48519487      1.53776634      0.18769777
H       3.05276275     -0.42435232     -2.11992511
H       2.11226814      1.01511614     -1.78167920
H       2.15555622     -1.54298736     -0.04638984
H      -2.49623432     -1.17660191      1.23476479
H      -4.53930052     -2.50197139      1.04348172
H      -5.09847622     -3.65790112     -1.08003868
H      -3.57788252     -3.45137621     -3.03045793
H      -1.54721757     -2.10327617     -2.88706305
H      -0.19697694      1.56114315      2.68650792
H      -1.60541455      3.45740794      3.31463071
H      -3.44368314      4.21180038      1.82796729
H      -3.84338877      3.04429808     -0.32486396
H      -2.42999840      1.16955750     -1.00204349
