56
Cc1cccc(CCN2C(=O)c3ccccc3C2C(=O)NCc2ccc(OC(F)(F)F)cc2)n1
C      -1.40561711      3.95436708      0.43574304
C      -2.29342779      2.77238126      0.69229354
C      -3.65935312      2.85206842      0.44300723
C      -4.45255815      1.74023614      0.70495571
C      -3.86461800      0.58190377      1.20447271
C      -2.49038907      0.57078865      1.42220171
C      -1.80498073     -0.66295960      1.94947095
C      -0.56895697     -1.05279687      1.13022947
N      -0.87728574     -1.55930103     -0.20361269
C      -1.42997861     -2.80812965     -0.42588319
O      -1.57054509     -3.71356059      0.37413667
C      -1.86582884     -2.83947532     -1.82561352
C      -2.46003682     -3.87364578     -2.52286469
C      -2.80117763     -3.63655646     -3.85495827
C      -2.54699449     -2.38646564     -4.44681722
C      -1.94910362     -1.35295267     -3.71738153
C      -1.60803824     -1.59456445     -2.39707567
C      -0.97538986     -0.68101533     -1.38396204
C       0.39395246     -0.15295303     -1.85852888
O       0.50249987      0.82425016     -2.59703571
N       1.47068251     -0.93398680     -1.48413193
C       2.83110870     -0.48232205     -1.63956399
C       3.31466542      0.14366551     -0.35622404
C       3.14096296      1.51112091     -0.12677781
C       3.53646955      2.07885842      1.08558468
C       4.10220996      1.29420429      2.09267857
O       4.43133938      1.97790198      3.22820431
C       4.81999858      1.21713963      4.36129773
F       4.99428234      2.05489479      5.40680021
F       5.98974668      0.57628631      4.13953735
F       3.86970036      0.31713123      4.70008227
C       4.28334238     -0.06905336      1.86606752
C       3.88765123     -0.64087994      0.65171812
N      -1.70768342      1.65389868      1.18322329
H      -1.64998931      4.76668650      1.12861931
H      -0.35162910      3.68738566      0.57818537
H      -1.53169568      4.31152848     -0.59303420
H      -4.10103199      3.76374148      0.05073677
H      -5.52354976      1.77466745      0.52043758
H      -4.47239169     -0.29502298      1.40991618
H      -2.50879017     -1.50415034      1.98261896
H      -1.50167684     -0.45980087      2.98443113
H       0.14634482     -0.22913171      1.04007772
H      -0.05938702     -1.86526860      1.66139208
H      -2.65378634     -4.82825707     -2.04756055
H      -3.27011781     -4.42337244     -4.44155868
H      -2.82088066     -2.22201383     -5.48721312
H      -1.75602858     -0.38995473     -4.18021228
H      -1.64070295      0.15587374     -1.16025921
H       1.28303863     -1.64387593     -0.78662187
H       3.44348014     -1.35446589     -1.89217359
H       2.91381298      0.22813082     -2.46874522
H       2.67685327      2.14042090     -0.88661130
H       3.38774696      3.14448345      1.24616806
H       4.72891710     -0.72699927      2.60699816
H       4.02481492     -1.71108346      0.50313479
