22
CCCCCC(C)=O
C       3.64882361      0.10058575      0.55129704
C       2.32563809     -0.63619679      0.41774173
C       1.17045462      0.33003225      0.15667366
C      -0.15831644     -0.41473120      0.02299241
C      -1.31256960      0.55027954     -0.23782045
C      -2.64688048     -0.16156092     -0.37528846
C      -3.84330128      0.71682032     -0.63468937
O      -2.76505997     -1.38243763     -0.28353566
H       4.46080041     -0.60928258      0.73755750
H       3.88412411      0.65344225     -0.36375448
H       3.62032558      0.81034440      1.38422330
H       2.39838600     -1.36007275     -0.40227006
H       2.13604209     -1.20403364      1.33606764
H       1.10470472      1.05439080      0.97768427
H       1.36704385      0.89835584     -0.76062525
H      -0.09336018     -1.14229256     -0.79567713
H      -0.35505979     -0.98664004      0.93841423
H      -1.13149424      1.10715412     -1.16387036
H      -1.39600534      1.26448439      0.58886935
H      -4.74312657      0.10064022     -0.71518136
H      -3.96882236      1.41861728      0.19345068
H      -3.70234684      1.26012948     -1.57225923
