29
O=C(O)CCNC(=O)Nc1ccc([N+](=O)[O-])cc1
O       5.88378652     -0.21794157      0.15023804
C       5.09832928     -1.14736816      0.07443821
O       5.49137631     -2.40241556      0.36785296
C       3.66094636     -1.09049329     -0.35035026
C       3.23687744      0.35368834     -0.58754719
N       1.86904005      0.46561655     -1.07396444
C       0.80903067      0.26300763     -0.20736022
O       0.96457825     -0.07340655      0.95776256
N      -0.38870561      0.47194990     -0.85603999
C      -1.68193067      0.44019294     -0.29956277
C      -2.76422779      0.51538826     -1.18796010
C      -4.08113079      0.49756695     -0.71577922
C      -4.31835448      0.40811217      0.66035301
N      -5.69743581      0.38976076      1.16324942
O      -5.86507670      0.31953924      2.38889762
O      -6.61397392      0.44721812      0.33059354
C      -3.24827585      0.33955161      1.55821582
C      -1.93466580      0.35819207      1.07328647
H       6.42908617     -2.30846253      0.63710121
H       3.54568604     -1.67192247     -1.27170900
H       3.04950154     -1.55066404      0.43237006
H       3.33100731      0.94631158      0.33029211
H       3.87711600      0.81714595     -1.34702690
H       1.71102936      1.20325590     -1.74534104
H      -0.32628321      0.50284561     -1.86271871
H      -2.59877469      0.58523064     -2.26068709
H      -4.90127188      0.55363162     -1.42867297
H      -3.41107391      0.27253461      2.63220930
H      -1.12621018      0.31193370      1.79816735
