19
O=C(O)c1ccc([N+](=O)[O-])c([N+](=O)[O-])c1
O      -3.61817663      1.00614691     -0.40567704
C      -2.72003983      0.29302125     -0.80886193
O      -2.89927373     -0.57156119     -1.82008744
C      -1.33710327      0.25773350     -0.27211775
C      -1.02576237      1.09512183      0.81288765
C       0.26285295      1.10494398      1.35801458
C       1.24348177      0.26668664      0.81239244
N       2.58994997      0.35170572      1.34362886
O       2.71521117      0.27747923      2.57154035
O       3.49928911      0.54568827      0.52881995
C       0.93474807     -0.57352870     -0.25666964
N       1.90737364     -1.51040832     -0.78142117
O       2.07684042     -1.51686909     -2.00605349
O       2.45007444     -2.26425673      0.03442981
C      -0.35355538     -0.58355304     -0.81070004
H      -3.83748002     -0.45067417     -2.08228071
H      -1.79054562      1.74859794      1.23454938
H       0.49025255      1.76911522      2.19108716
H      -0.58813725     -1.24538923     -1.64348099
