68
CC(CCC(=O)O)C1CCC2C3CC(O)C4CC(O)CCC4(C)C3CCC12C
C       4.21720311      1.71791056      0.92146168
C       3.83749209      0.23347098      0.92483792
C       5.11408682     -0.64989059      0.99645734
C       5.98855240     -0.72442116     -0.25643933
C       6.79367345      0.52091384     -0.52794186
O       6.61915480      1.24784398     -1.49357729
O       7.75604316      0.75420284      0.39109579
C       2.87872584     -0.14409265     -0.24079050
C       2.54678227     -1.64009610     -0.26449663
C       1.45501222     -1.74703817     -1.31065154
C       0.59914407     -0.47884094     -1.15041545
C      -0.80853442     -0.80651389     -0.57251482
C      -1.66855580     -1.48095634     -1.66004389
C      -3.12215412     -1.71081261     -1.24961347
O      -3.83765349     -2.19454457     -2.38624037
C      -3.76233644     -0.40149442     -0.76740375
C      -5.26822778     -0.55633180     -0.49278266
C      -5.89865791      0.77345061     -0.08275856
O      -7.25478393      0.56257201      0.29778635
C      -5.16396593      1.42669919      1.08243611
C      -3.66399112      1.55619416      0.81821223
C      -2.98515354      0.20856149      0.44197432
C      -3.03090559     -0.73560683      1.67448409
C      -1.49977609      0.46361069     -0.01693458
C      -0.63575345      1.16332278      1.05431380
C       0.81838210      0.69656753      1.09635087
C       1.45483829      0.51981500     -0.29539351
C       1.51984154      1.87889068     -1.02548415
H       3.38677890      2.33914781      1.26591038
H       5.05094195      1.91690692      1.60339865
H       4.50033567      2.06270099     -0.07672400
H       3.31466518      0.04616987      1.87214485
H       5.71970000     -0.31878220      1.84982650
H       4.80663772     -1.67292474      1.24813493
H       5.39813581     -0.95525236     -1.14832859
H       6.70258247     -1.55158042     -0.15571566
H       7.80630786      0.07913062      1.09319945
H       3.39159826      0.09067875     -1.18457657
H       3.40224619     -2.26328721     -0.54035245
H       2.17941459     -1.98131743      0.71019802
H       0.89810493     -2.68199486     -1.20218276
H       1.90739237     -1.75293811     -2.31042892
H       0.45638516     -0.05708715     -2.15542219
H      -0.68271996     -1.52447227      0.24819658
H      -1.23062691     -2.44194304     -1.95568326
H      -1.65596396     -0.87057898     -2.57398076
H      -3.18482369     -2.48391439     -0.47659807
H      -3.41483621     -3.02433453     -2.66739431
H      -3.69438237      0.31147504     -1.60479576
H      -5.78590821     -0.91934670     -1.38982178
H      -5.45850057     -1.32044157      0.27018017
H      -5.89796072      1.45986766     -0.93819428
H      -7.70412595      0.14199753     -0.45569670
H      -5.59127708      2.41989513      1.26963490
H      -5.34469141      0.86178692      2.00514896
H      -3.51656721      2.27811862      0.00393269
H      -3.19271601      1.99353668      1.70622419
H      -4.05041620     -1.03803518      1.92916580
H      -2.62664403     -0.25428855      2.57019034
H      -2.46182963     -1.65570779      1.51926189
H      -1.55894118      1.16718940     -0.86207089
H      -0.66376135      2.24517107      0.86898862
H      -1.04380715      1.03932980      2.06106949
H       1.38283165      1.41564022      1.69929183
H       0.85738536     -0.25185479      1.64730961
H       0.52182089      2.25356769     -1.27487820
H       2.07190743      1.79618897     -1.96855611
H       2.00684490      2.64819633     -0.42209415
