59
CC(C)(CN1C(=O)c2ccccc2C1C(=O)NCc1ccc(OC(F)(F)F)cc1)c1ccccn1
C      -3.54191923      0.65660517     -0.21412870
C      -2.11231105      0.70740855     -0.78490623
C      -2.13281762      0.06837539     -2.18849462
C      -1.10913335     -0.05819541      0.13307618
N      -1.24649457     -1.51436820      0.19836052
C      -2.15624222     -2.18646049      0.99584577
O      -2.93743660     -1.72492494      1.80264627
C      -2.01531045     -3.61458589      0.69048810
C      -2.74783037     -4.67975930      1.17790850
C      -2.42071335     -5.95172387      0.70493580
C      -1.38374747     -6.12333407     -0.23179593
C      -0.65499263     -5.02842708     -0.70863341
C      -0.98296702     -3.76863597     -0.23454910
C      -0.36893718     -2.43409358     -0.54773778
C       1.10744833     -2.37988096     -0.08693192
O       2.02405856     -2.82001874     -0.77982682
N       1.29740968     -1.89195350      1.19169771
C       2.60911124     -1.55926834      1.69232821
C       3.03440817     -0.18657550      1.23150302
C       4.14790871     -0.03652477      0.39693179
C       4.53369263      1.23106577     -0.04758843
C       3.81122032      2.37011409      0.32015155
O       4.30090137      3.53785325     -0.19139083
C       3.59442601      4.73055097      0.09190210
F       3.54839270      4.97233336      1.41964688
F       2.33706874      4.68799533     -0.40124301
F       4.23566494      5.76466116     -0.49727852
C       2.69795399      2.22687303      1.14884468
C       2.31689865      0.95889755      1.60607234
C      -1.67660725      2.18547096     -0.79710546
C      -1.64412081      2.96161393     -1.95719753
C      -1.26615364      4.30189107     -1.87730391
C      -0.93476977      4.84739844     -0.64633526
C      -0.99375405      4.02461246      0.46084902
N      -1.34797630      2.72102410      0.40956268
H      -3.57307625      0.99475386      0.82733629
H      -4.21958186      1.30311416     -0.78610436
H      -3.95763395     -0.35593076     -0.25164188
H      -2.44448680     -0.98099409     -2.14815917
H      -2.84623354      0.56903819     -2.85328827
H      -1.14495194      0.10759987     -2.66062108
H      -0.08316005      0.15994752     -0.18625831
H      -1.20439969      0.29934782      1.16633338
H      -3.54529068     -4.52757915      1.89710342
H      -2.97158449     -6.81869515      1.06177491
H      -1.14332243     -7.12388364     -0.58734875
H       0.15173591     -5.16923339     -1.42399029
H      -0.43568818     -2.19705690     -1.61389385
H       0.49465720     -1.47660345      1.64938642
H       3.32382122     -2.32390868      1.36713746
H       2.56691177     -1.58397905      2.78626836
H       4.71520244     -0.90690116      0.07254270
H       5.40235103      1.32402014     -0.69705498
H       2.09006977      3.07276078      1.45489481
H       1.44080041      0.87490663      2.24770886
H      -1.91366869      2.56125586     -2.92774997
H      -1.23290055      4.91625929     -2.77333151
H      -0.64115051      5.88670950     -0.55225195
H      -0.75074928      4.39903787      1.45090409
