35
CC(=O)N(c1onc(C)c1C)S(=O)c1ccc(N)cc1
C      -0.54332055     -3.48794610      0.51466866
C      -1.38433398     -2.23504227      0.44524397
O      -2.50884531     -2.34591457     -0.06004847
N      -0.86246171     -1.03496114      0.91823712
C      -1.56108923      0.14439676      0.63708564
O      -1.49645035      1.14939064      1.56501517
N      -2.23387218      2.23456793      1.15848233
C      -2.74917193      1.89676799     -0.02546779
C      -3.60918563      2.85424169     -0.76091781
C      -2.33466042      0.59275132     -0.42389543
C      -2.64961347     -0.06285757     -1.71705343
S       0.24621022     -0.98084338      2.19025247
O       0.71620273     -2.33159553      2.63679430
C       1.59924427     -0.30404734      1.17783143
C       1.69134610      1.07132033      0.94101935
C       2.73386187      1.58769706      0.16325373
C       3.73230843      0.75251425     -0.34064058
N       4.69837145      1.25658549     -1.21642392
C       3.62118599     -0.62263161     -0.13020269
C       2.58122215     -1.14607924      0.64538462
H      -0.67729033     -3.98094699      1.48000096
H       0.50724110     -3.28109218      0.30925840
H      -0.88070865     -4.17886337     -0.26593410
H      -3.92823916      3.68320229     -0.12057130
H      -3.06670839      3.27270512     -1.61457642
H      -4.50901690      2.35490995     -1.13422497
H      -3.59351514     -0.61234861     -1.65177730
H      -1.85408175     -0.74882216     -2.02366913
H      -2.75143815      0.68069947     -2.51482579
H       0.95818634      1.76282945      1.34825041
H       2.76051667      2.65565494     -0.03919711
H       5.53620699      0.68639482     -1.28001253
H       4.91329517      2.23874077     -1.07419470
H       4.35031145     -1.30332730     -0.56242436
H       2.54829229     -2.21805092      0.82527928
