27
CC1CCCC(C)(C)C1
C       2.67613001     -1.08121024      0.17617649
C       1.39369908     -0.27454290      0.38194023
C       1.53152008      1.11992022     -0.23988200
C       0.24613898      1.93068623     -0.10914345
C      -0.95320254      1.18606249     -0.69331811
C      -1.13918512     -0.23179615     -0.10868133
C      -1.61656447     -0.15664728      1.35464853
C      -2.22190393     -0.96845517     -0.92048370
C       0.18713155     -1.02127790     -0.21009394
H       2.59403653     -2.06676968      0.64645236
H       2.88789954     -1.23014789     -0.88808766
H       3.53361554     -0.56719381      0.62314603
H       1.24839154     -0.16173592      1.46329117
H       2.35250651      1.66457886      0.24160350
H       1.79264509      1.02997375     -1.30226518
H       0.06537890      2.16992327      0.94494556
H       0.36646407      2.88846550     -0.62873076
H      -1.85980241      1.78386061     -0.53646246
H      -0.81545683      1.11590292     -1.78082345
H      -0.90420808      0.36110310      2.00301732
H      -2.57114992      0.37699069      1.42801094
H      -1.76676424     -1.15992922      1.76957109
H      -3.17956526     -0.43756400     -0.87598667
H      -1.93881223     -1.05403615     -1.97565677
H      -2.38278171     -1.98227266     -0.53678994
H       0.07986655     -1.99440148      0.28692199
H       0.39397277     -1.23948719     -1.26722455
