46
CCN(CC)C(=O)n1cnc(S(=O)(=O)c2c(C)cc(C)cc2C)n1
C      -4.13879275     -0.97635519     -1.58164648
C      -3.96962743     -1.21338801     -0.08807795
N      -4.16412163      0.01621711      0.69444842
C      -5.53830046      0.28705842      1.12161988
C      -5.87259305     -0.38843012      2.44415482
C      -3.18027732      0.88683208      1.18734163
O      -3.39984291      1.77481870      2.00867703
N      -1.84985937      0.76926485      0.71841700
C      -0.78145603      1.51588001      1.16968103
N       0.31954658      1.19848433      0.53180110
C      -0.10616997      0.22847483     -0.35106393
S       0.98896276     -0.56292450     -1.48593977
O       0.75169807     -1.98641407     -1.32412797
O       0.72313498      0.07988285     -2.75995308
C       2.64570971     -0.16305877     -0.90260743
C       3.23212494     -0.94305726      0.12795536
C       2.53172056     -2.06849497      0.84382069
C       4.55967170     -0.67858748      0.51456526
C       5.30413974      0.33977180     -0.08029652
C       6.70663177      0.62373836      0.37073071
C       4.70122291      1.13195477     -1.05815470
C       3.37748578      0.90395972     -1.48156202
C       2.83619999      1.83308272     -2.53603426
N      -1.42092714     -0.05327111     -0.27090740
H      -3.45390435     -0.20921718     -1.95473733
H      -5.15648396     -0.64294711     -1.81166870
H      -3.95377891     -1.90238476     -2.13506611
H      -3.00491989     -1.66979007      0.14224757
H      -4.71383210     -1.94821948      0.24185253
H      -5.67907408      1.36951634      1.22506961
H      -6.22838069     -0.04831362      0.33868098
H      -5.19154536     -0.06795420      3.23852841
H      -6.89410672     -0.14110903      2.74882926
H      -5.79834738     -1.47616673      2.36095151
H      -0.88737792      2.25321048      1.95372642
H       3.04928515     -2.32847110      1.77398313
H       1.51785886     -1.78344642      1.13752615
H       2.51325252     -2.96568410      0.21815625
H       5.02271903     -1.28024324      1.29643928
H       6.69924162      1.37731063      1.16410308
H       7.18771651     -0.28348963      0.75094621
H       7.31604707      0.98864773     -0.46226021
H       5.27560227      1.94564594     -1.50090129
H       1.86941391      2.24587794     -2.23313190
H       3.49696177      2.69443164     -2.68781928
H       2.75737123      1.31735688     -3.49765001
