47
CCOCOC1CCCCCCCCCCC1
C       3.60272625      1.72918761      2.20100861
C       3.81969455      0.57383478      1.24362941
O       2.78689501     -0.38343820      1.45918379
C       2.82966758     -1.43184808      0.49643419
O       2.38868250     -1.00225616     -0.78994744
C       0.96100283     -0.79980908     -0.85675192
C       0.29046753     -2.14656844     -1.21076762
C      -1.21757788     -2.24439061     -0.92102324
C      -1.55918671     -2.08365803      0.56523165
C      -3.05183070     -1.92218308      0.86585565
C      -3.72893765     -0.61368510      0.41968578
C      -3.00067107      0.68355021      0.81158630
C      -2.10948673      1.17317961     -0.33092633
C      -1.06804301      2.21072964      0.06821997
C      -0.17608640      2.61217619     -1.11961443
C       1.03129247      1.70062247     -1.42011928
C       0.71631570      0.28144421     -1.93402839
H       3.61636512      1.38120553      3.24069493
H       4.37544765      2.48731298      2.06794675
H       2.62074600      2.19612073      2.02470626
H       3.79694995      0.93929922      0.20870432
H       4.79330566      0.10798943      1.43381786
H       3.85434581     -1.81445911      0.40608887
H       2.21026795     -2.25633552      0.86345523
H       0.61265551     -0.42295542      0.10846247
H       0.79332771     -2.97004810     -0.69262376
H       0.45290668     -2.34837063     -2.27665744
H      -1.56412823     -3.23351940     -1.24543345
H      -1.76230272     -1.53326918     -1.54252884
H      -1.02264510     -1.24808890      1.01877512
H      -1.20212786     -2.97874807      1.09007191
H      -3.17635279     -2.00704758      1.95262985
H      -3.60103216     -2.76779320      0.43601049
H      -3.90348549     -0.64026317     -0.66333516
H      -4.72295326     -0.59393479      0.88574367
H      -3.74140493      1.46134714      1.01979709
H      -2.42331398      0.53426409      1.73673003
H      -1.58457816      0.32023001     -0.73251515
H      -2.73987124      1.56549255     -1.14594292
H      -1.59389298      3.10496195      0.43183938
H      -0.44955449      1.84521199      0.89915060
H       0.22895444      3.60577992     -0.89472583
H      -0.78367491      2.73426093     -2.02539434
H       1.61942272      2.20967270     -2.20119434
H       1.67947611      1.66355292     -0.53630417
H       1.39546911      0.07800610     -2.77797997
H      -0.29324638      0.24323690     -2.34682901
