25
CC1(C)SCC(COC(N)=O)S1
C      -2.09267470      0.98949146      1.63237340
C      -1.99560041      0.43254181      0.21266145
C      -3.19498627      0.86598858     -0.63128855
S      -1.94644245     -1.39567507      0.28522465
C      -0.62979084     -1.61563753     -0.93774510
C       0.42481468     -0.54151060     -0.71721333
C       1.30294085     -0.80786341      0.51797520
O       2.41047935      0.11050925      0.58924910
C       3.45710832     -0.18493707     -0.21156072
N       4.42584167      0.74357544     -0.06342347
O       3.53700341     -1.13355792     -0.97468693
S      -0.46287399      1.05613130     -0.58105758
H      -1.24092542      0.69280237      2.25607477
H      -2.13172868      2.08570864      1.62757040
H      -3.00524970      0.64444393      2.13377066
H      -3.14566579      0.47807301     -1.65618477
H      -3.26312787      1.95901999     -0.69455897
H      -4.13749956      0.51746075     -0.19134138
H      -0.20662624     -2.62118592     -0.84878742
H      -1.06833799     -1.53534566     -1.93909799
H       1.06004251     -0.47242285     -1.60615410
H       1.68298208     -1.83764295      0.51296411
H       0.74287883     -0.69599264      1.45259368
H       4.24496039      1.55987829      0.50017247
H       5.23247781      0.70614678     -0.66752956
