28
CCOc1ccc(N(C)C(N)=O)cc1
C      -4.90083656      0.64188422     -1.14268682
C      -3.67024338      0.07838921     -0.45498015
O      -2.52261943      0.70941827     -1.02028441
C      -1.30214594      0.33237721     -0.53595527
C      -1.06715787     -0.60469126      0.46550515
C       0.24531340     -0.89673018      0.86675507
C       1.34907801     -0.24944444      0.28989074
N       2.68506876     -0.57026770      0.70395496
C       2.93077696     -1.92061046      1.20112576
C       3.78599753      0.27376949      0.64012731
N       3.53523516      1.60203344      0.50554386
O       4.95436493     -0.08347264      0.77037683
C       1.09496131      0.67477604     -0.73085341
C      -0.21408271      0.96552017     -1.13342092
H      -4.85760178      0.45843634     -2.22141821
H      -5.81251754      0.18861122     -0.74350773
H      -4.95606085      1.72696943     -1.00584871
H      -3.63078967     -1.00411361     -0.62278624
H      -3.73126740      0.29146993      0.61849900
H      -1.87807261     -1.12887044      0.96011174
H       0.37549665     -1.62357072      1.66378832
H       2.39374623     -2.65311121      0.58952133
H       2.60153458     -1.98037899      2.24332613
H       3.99310272     -2.18008702      1.16967264
H       2.71078899      1.94249940      0.98045681
H       4.36226955      2.16985663      0.63668748
H       1.90697457      1.15543459     -1.27052916
H      -0.38131362      1.68390306     -1.93270447
