25
CCOc1ccc(C=O)cc1OC
C      -3.90160391     -0.44749743     -0.05721620
C      -2.42962855     -0.59277553      0.28919039
O      -1.68025593     -0.42206389     -0.91473977
C      -0.39797467      0.04279744     -0.76568095
C      -0.00196808      0.91475363     -1.78983224
C       1.27465232      1.47264460     -1.79789713
C       2.16409498      1.14338918     -0.77765849
C       3.51693068      1.73542660     -0.78088239
O       4.33908991      1.48191007      0.09073042
C       1.79014898      0.25402349      0.23802832
C       0.51065472     -0.31655685      0.24759335
O       0.09426005     -1.22883811      1.18008333
C       1.04076302     -1.67994086      2.14109179
H      -4.52616447     -0.58402063      0.83006947
H      -4.10124547      0.54208429     -0.48156751
H      -4.19488861     -1.18371819     -0.81297924
H      -2.16740610      0.16170900      1.04073733
H      -2.26095789     -1.59881253      0.68661215
H      -0.70571256      1.16272681     -2.58167784
H       1.55562256      2.15289613     -2.59700963
H       3.75365654      2.42225905     -1.61079003
H       2.52325439      0.01986467      1.00442499
H       0.54849690     -2.43156593      2.76575580
H       1.89866732     -2.15956298      1.65843612
H       1.35751387     -0.86113202      2.79517795
