40
CCCCCCCC(=O)NNC(=O)c1ccncc1
C       7.72704951     -0.59614032     -0.35379033
C       6.36831114     -1.15949268      0.03088339
C       5.25171262     -0.14477844     -0.21361355
C       3.88667596     -0.71534197      0.17458104
C       2.76917630      0.30000823     -0.07012860
C       1.40457375     -0.27037967      0.31795427
C       0.28858332      0.74284383      0.07387515
C      -1.07308836      0.19646997      0.45172775
O      -1.27190323     -0.92882048      0.90374344
N      -2.09344898      1.10688427      0.24673339
N      -3.40440404      0.61956568      0.34195691
C      -4.35781415      1.16598860     -0.49199947
O      -4.12686785      2.14469185     -1.19937726
C      -5.70236750      0.53105341     -0.49412071
C      -6.78416139      1.29648649     -0.93443209
C      -8.03701901      0.71325198     -0.94269615
N      -8.27071920     -0.55780141     -0.55410724
C      -7.20658047     -1.28230832     -0.14927164
C      -5.91282165     -0.79166365     -0.10191902
H       7.96176599      0.29745340      0.23335718
H       8.51056765     -1.33816741     -0.17099438
H       7.75434012     -0.32755349     -1.41466566
H       6.17868722     -2.06934820     -0.55041693
H       6.38487994     -1.44755520      1.08844551
H       5.44836375      0.76487764      0.36683828
H       5.24219151      0.14312818     -1.27195540
H       3.89631597     -1.00301728      1.23295676
H       3.69015961     -1.62490722     -0.40600541
H       2.96566083      1.20955287      0.51049110
H       2.75950149      0.58761034     -1.12851286
H       1.20750066     -1.18247828     -0.25915211
H       1.41312013     -0.56215888      1.37559019
H       0.47009225      1.64883435      0.66387208
H       0.26351490      1.02207970     -0.98600052
H      -1.97237886      1.90077384     -0.38309366
H      -3.52201304     -0.22482662      0.89614103
H      -6.65510186      2.32354252     -1.26107812
H      -8.91180909      1.26702215     -1.27218501
H      -7.42928481     -2.30598345      0.14042326
H      -5.11096114     -1.44939633      0.20912771
