31
CN1C[C@@H]2C[C@@H](C1)c1cccc(=O)n1C2
C       3.68019995     -0.53571828     -0.03897487
N       2.42281661     -0.29532450      0.65942126
C       2.04168632      1.17620613      0.64867987
C       0.63148862      1.20970460      0.14318106
C       0.63148890      0.53657012     -1.23480305
C       0.21013303     -0.83023319     -0.78876547
C       1.33233135     -1.28966247      0.25693014
C      -1.25970139     -0.61282889     -0.27673470
C      -2.15145604     -1.61673329     -0.32350578
C      -3.52079717     -1.40846050      0.06745421
C      -3.95178314     -0.20219920      0.45319090
C      -3.02004379      0.95300775      0.50829756
O      -3.44233193      2.04970557      0.86653104
N      -1.69886269      0.69699259      0.14876666
C      -0.71352943      1.84953890      0.28252356
H       3.59491289     -0.37453567     -1.11794462
H       4.46700154      0.12120602      0.34804634
H       4.02367366     -1.56225689      0.12921278
H       2.70655163      1.77260328      0.01290088
H       2.12126345      1.56673003      1.66966896
H       0.34858093      0.55478243      0.99211961
H       1.60480795      0.54027454     -1.73664487
H      -0.06505463      0.98860397     -1.95332492
H       0.20702289     -1.52060516     -1.64083901
H       0.83530548     -1.60756022      1.18331980
H       1.80411181     -2.20180807     -0.13125398
H      -1.87078437     -2.60664235     -0.66983131
H      -4.19995430     -2.25382136      0.03072245
H      -4.97568675     -0.01132278      0.74601352
H      -0.85822754      2.32472483      1.26004520
H      -0.93516385      2.58906205     -0.49440322
