43
CC(=O)C=C(C)[O-].CC(=O)C=C(C)[O-].CC(=O)C=C(C)[O-].[Al+3]
C       2.45966108      0.26789504      0.15361048
C       1.18669207     -0.48376533      0.21399067
O       1.21314900     -1.65898675      0.64783693
C      -0.02525838      0.14051725     -0.21809298
C      -1.21389401     -0.46650828     -0.19636290
C      -2.44727479      0.19294494     -0.64490357
O      -1.24690555     -1.75717328      0.26965842
C       2.10940496     -0.02827724     -0.39725268
C       1.15086599      1.03249497     -0.00304860
O       1.59977841      2.22194968      0.21121257
C      -0.25369206      0.76874473      0.14452545
C      -0.76201898     -0.41685704     -0.05997536
C      -2.23667134     -0.65938650      0.10309887
O       0.02947694     -1.47236786     -0.42802026
C       2.47686520      0.18392718      0.05460152
C       1.20475298     -0.22114408     -0.58148966
O       1.16741609     -0.78916838     -1.68382083
C      -0.04870906      0.07176746      0.14024477
C      -1.21988035     -0.26505233     -0.37505987
C      -2.44531704      0.05390201      0.39410176
O      -1.25567263     -0.89776475     -1.60374486
Al      0.00000000      0.00000000      0.00000000
H       2.41088021      1.05359355      0.94682158
H       2.61170479      0.70947187     -0.85284665
H       3.34137153     -0.40047982      0.35258451
H      -0.01799302      1.14960129     -0.58558581
H      -2.17053155      0.91625351     -1.46619981
H      -3.19404413     -0.49718362     -1.05293220
H      -2.90755726      0.83381962      0.14725877
H       2.07844668     -0.82158220      0.36032847
H       3.15882655      0.35304546     -0.38193527
H       1.82554826     -0.42245175     -1.38515389
H      -0.92497287      1.56682098      0.43367636
H      -2.50794718     -0.77723840      1.17261196
H      -2.74304028      0.21595918     -0.34449597
H      -2.52400508     -1.56085399     -0.44376203
H       3.34087212     -0.41170062     -0.31355208
H       2.34115042      0.07649648      1.14958562
H       2.63136552      1.27046798     -0.20800150
H      -0.01518979      0.57051411      1.10815320
H      -2.28879791      1.04348030      0.86017668
H      -3.36723239     -0.01597259     -0.19890957
H      -2.52162316     -0.66975277      1.25771481
