15
C/C=C\CC
C      -2.01373891     -0.70431205     -0.24218995
C      -1.30620013      0.57414189     -0.55501023
C      -0.09066592      0.96357849     -0.13856591
C       0.84680415      0.22497750      0.77255048
C       2.07806171     -0.26010570      0.02356365
H      -2.92456099     -0.49418026      0.32677308
H      -1.40706302     -1.40815115      0.33130929
H      -2.30169483     -1.20077670     -1.17439380
H      -1.85592493      1.25123340     -1.20815832
H       0.27014527      1.93382430     -0.48029399
H       1.15582430      0.90489555      1.57525785
H       0.36163133     -0.62442040      1.26162446
H       2.62079944      0.57488072     -0.43246529
H       1.80569044     -0.96437306     -0.76982606
H       2.76089210     -0.77121253      0.70982473
