34
CC(=O)/C=C/C=C(\C)CCC=C(C)C
C       5.21001663      0.88679544     -0.38110600
C       4.48175308      0.01735421     -1.37161095
O       4.99869317     -0.31647473     -2.43734045
C       3.10397148     -0.45777062     -1.07027476
C       2.42788311     -0.16564098      0.05054357
C       1.08507803     -0.65242116      0.28850151
C       0.32081904     -0.43209228      1.37749006
C       0.73315685      0.34593063      2.59989441
C      -1.08164874     -1.02263951      1.44297353
C      -2.21464365      0.00966300      1.34835578
C      -2.25702384      0.71637569      0.01905586
C      -3.09395399      0.48699075     -1.01160250
C      -3.01091952      1.31810519     -2.26562829
C      -4.15166101     -0.58110192     -1.04704885
H       4.66503243      1.82184195     -0.22812864
H       5.33998003      0.35392719      0.56435391
H       6.20160625      1.12972701     -0.77529250
H       2.67454363     -1.07823387     -1.85153591
H       2.87793166      0.45939466      0.81316988
H       0.65733981     -1.24594541     -0.52162092
H       0.17638677      1.28626228      2.65844282
H       0.52469145     -0.23526844      3.50467312
H       1.79738840      0.58929517      2.62501877
H      -1.18079304     -1.57033190      2.38924497
H      -1.22011432     -1.77584097      0.65565798
H      -2.10985414      0.76503175      2.13666332
H      -3.16565126     -0.49092422      1.55764864
H      -1.51650793      1.51035076     -0.08252438
H      -3.96559124      1.82181698     -2.44941314
H      -2.23535697      2.08878422     -2.20373446
H      -2.78014531      0.68309684     -3.12723990
H      -4.11377802     -1.25776904     -0.19043245
H      -4.03213738     -1.19865247     -1.94385958
H      -5.14649148     -0.12482651     -1.07329445
