51
CCN(CC)C(=O)NC1C=C2c3cccc4[nH]c(Br)c(c34)CC2N(C)C1
C       5.87551319      1.40441583      0.77536693
C       5.12689105      0.09466867      0.96165542
N       3.76941975      0.12397147      0.41687825
C       3.61043867     -0.12687410     -1.01977529
C       3.45252558      1.14401493     -1.84215831
C       2.75940448      0.59600589      1.24684901
O       2.96611576      1.01142582      2.38497395
N       1.50527101      0.58503791      0.69680427
C       0.35919238      0.97311616      1.49860074
C      -0.72872210      1.30918776      0.52210776
C      -1.75645017      0.47193619      0.28349835
C      -2.84099562      0.84650791     -0.65268609
C      -3.25602845      2.12557794     -1.04122142
C      -4.31814160      2.28971781     -1.94227567
C      -5.00422078      1.19227150     -2.48643297
C      -4.58004867     -0.07640038     -2.08669312
N      -5.01232918     -1.34373698     -2.41182355
C      -4.25895708     -2.28218001     -1.75216113
Br     -4.49201733     -4.15802041     -1.90990654
C      -3.32859885     -1.62817600     -0.98459282
C      -3.53064919     -0.24526507     -1.19661158
C      -2.23937208     -2.07509602     -0.07147524
C      -1.85552429     -0.93796118      0.95128293
N      -0.61579784     -1.32380097      1.69409653
C      -0.85790915     -2.43238051      2.62164551
C      -0.08307698     -0.16438540      2.45211905
H       6.06088709      1.60714043     -0.28306270
H       6.84598055      1.35909700      1.27953384
H       5.31350566      2.24793767      1.18850640
H       5.67667104     -0.73120803      0.49676357
H       5.07484714     -0.13148125      2.03327091
H       4.47609531     -0.69486884     -1.37859208
H       2.73797468     -0.76978202     -1.17366155
H       3.33728662      0.89324641     -2.90141083
H       2.57377168      1.71909760     -1.53578417
H       4.32442291      1.79596086     -1.74414887
H       1.31329483     -0.22054832      0.12209698
H       0.61065826      1.86036949      2.09133727
H      -0.64126781      2.26992385      0.02554020
H      -2.76734146      3.00915118     -0.64034247
H      -4.62067922      3.29616726     -2.22598689
H      -5.82404849      1.33217755     -3.18262600
H      -5.76769114     -1.55594020     -3.04694704
H      -2.56525261     -2.97190755      0.46621798
H      -1.36284174     -2.34429278     -0.67490680
H      -2.68155044     -0.85058385      1.67534050
H      -1.63859125     -2.19677864      3.35370003
H      -1.14197963     -3.34487893      2.08952897
H       0.05867173     -2.68165935      3.16886158
H       0.78116684     -0.48156308      3.04884940
H      -0.83992304      0.21164478      3.15446366
