25
NCCCNc1ccccc1
N       4.67471462      0.09041169     -0.30896594
C       3.40562465      0.25412649      0.39105933
C       2.23719053     -0.04603573     -0.54403112
C       0.90228677      0.08688677      0.19125559
N      -0.19399945     -0.15724523     -0.74066027
C      -1.51116614     -0.18119129     -0.26596948
C      -2.50540562     -0.73224461     -1.08871803
C      -3.85083053     -0.73259059     -0.70822584
C      -4.23131638     -0.15330319      0.49730298
C      -3.26761785      0.43595440      1.30976232
C      -1.92240416      0.43347667      0.92234684
H       5.44169579      0.34914529      0.31087010
H       4.71897873      0.73338819     -1.09936877
H       3.38476058     -0.42444777      1.25056672
H       3.33216215      1.27832051      0.77303810
H       2.25560290      0.64009096     -1.40087332
H       2.33275097     -1.06124523     -0.95085913
H       0.86520633     -0.63398604      1.01703349
H       0.82601870      1.09887369      0.60560660
H      -0.01684842     -0.94052971     -1.36626414
H      -2.23586580     -1.16954472     -2.04696430
H      -4.59791073     -1.17656620     -1.36026543
H      -5.27595510     -0.14728895      0.79548392
H      -3.55982485      0.90947199      2.24320840
H      -1.20784770      0.92596674      1.57363137
