46
CCNC(=O)c1nnc2c(-c3cc(OC)ccc3OC)c(F)ccc2c1N
C       5.56386278      2.61335020      1.83696904
C       5.09781356      1.31935615      2.47908899
N       3.89837875      0.81458769      1.85074266
C       3.92268346      0.05088706      0.69851548
O       4.96067943     -0.30402033      0.14592115
C       2.57691319     -0.30255524      0.13917880
N       1.53784891      0.32646709      0.72993041
N       0.26862060      0.09957401      0.27428301
C       0.01658087     -0.75797694     -0.73387556
C      -1.30586882     -0.99086438     -1.15223563
C      -2.44519042     -0.31165343     -0.50279638
C      -2.75638703      1.01685672     -0.86125900
C      -3.82743264      1.68604820     -0.27047514
O      -4.22308420      2.96793568     -0.53509070
C      -3.43510754      3.70596878     -1.46062987
C      -4.59807947      1.02352983      0.68355120
C      -4.30535378     -0.29157441      1.05539102
C      -3.23100769     -0.96649865      0.47048411
O      -2.86066134     -2.25284875      0.77566643
C      -3.62265730     -2.93797454      1.76032469
C      -1.55042194     -1.89706320     -2.19276443
F      -2.80464754     -2.12085595     -2.61477122
C      -0.52105035     -2.58110611     -2.81530222
C       0.78761650     -2.35462073     -2.40541745
C       1.08699593     -1.43328600     -1.37409030
C       2.41681187     -1.16536094     -0.95155389
N       3.50788593     -1.88828768     -1.50375761
H       6.45846165      2.98957631      2.34239102
H       4.78579710      3.38161402      1.89736502
H       5.80444299      2.46598719      0.77900076
H       5.88566324      0.56188122      2.41057282
H       4.86745924      1.48295186      3.53636613
H       2.98980848      1.12552107      2.18479087
H      -2.13827603      1.50438850     -1.60864579
H      -3.46683207      3.25056799     -2.45590935
H      -2.40445753      3.81273565     -1.10623428
H      -3.86507496      4.70908108     -1.54017224
H      -5.43627321      1.53837439      1.14746863
H      -4.93650838     -0.75525118      1.80549256
H      -3.56276770     -2.43175480      2.72937342
H      -3.19176453     -3.93664381      1.88049455
H      -4.66232293     -3.06139171      1.43981853
H      -0.74499848     -3.28769537     -3.60838585
H       1.57701181     -2.91997222     -2.89525585
H       3.47051560     -1.99992755     -2.51097794
H       4.41437395     -1.49805682     -1.20868749
