32
CCCCC(CC)C1OCCO1
C      -4.42190422     -0.72084625     -0.24756297
C      -3.04991722     -0.67531328     -0.90121897
C      -1.96908894     -0.24838240      0.09357398
C      -0.59085543     -0.19774908     -0.57351314
C       0.57034213      0.08447775      0.40833817
C       0.39809458      1.38309719      1.22749298
C       0.31963130      2.65896524      0.40075001
C       1.92256219      0.04184008     -0.33680121
O       3.01080665      0.30916078      0.56224604
C       3.71596757     -0.92629877      0.66344171
C       3.47202888     -1.57437552     -0.67008088
O       2.11041082     -1.25026322     -0.93919888
H      -4.70453414      0.26297098      0.14045578
H      -4.43772805     -1.43516452      0.58178808
H      -5.17864708     -1.02890764     -0.97580708
H      -3.07618485      0.02415179     -1.74489650
H      -2.81306686     -1.66555746     -1.30740554
H      -2.22941195      0.73606536      0.49752450
H      -1.94552142     -0.95233176      0.93403461
H      -0.59847832      0.55440780     -1.37179658
H      -0.41372018     -1.16298068     -1.06457303
H       0.57821091     -0.73901402      1.13706575
H      -0.50244121      1.30962151      1.84804081
H       1.22902122      1.47930406      1.93706118
H       1.22889744      2.81430772     -0.18672577
H      -0.53661899      2.64675277     -0.27943419
H       0.20264011      3.52346798      1.06261676
H       1.95432830      0.79194977     -1.13471726
H       3.27118045     -1.50477335      1.48037726
H       4.77362147     -0.75287719      0.87604746
H       3.61917640     -2.65701991     -0.66095016
H       4.09119843     -1.12868576     -1.45617292
