36
C=CCCC(=O)C1CCCC(C)(C)C1
C       5.69944561      0.37484190     -1.54202792
C       4.93815375      0.20296011     -0.45417438
C       3.66797648      0.96162700     -0.18855942
C       2.46301731      0.02528455     -0.15560097
C       1.16452603      0.77348920      0.10262651
O       1.14869783      1.97153322      0.38501042
C      -0.11966916     -0.05526337      0.02749533
C      -0.33067209     -0.80238066      1.34605338
C      -1.63429773     -1.59441264      1.35095667
C      -2.83649212     -0.71497747      1.01097698
C      -2.67247218      0.06371148     -0.31323808
C      -3.82670330      1.07590705     -0.44377892
C      -2.74507180     -0.89260208     -1.51918313
C      -1.33056758      0.83166949     -0.30392619
H       5.43490571      1.08673016     -2.31810687
H       6.61425178     -0.19450939     -1.67614296
H       5.25271025     -0.51440633      0.30140433
H       3.76763872      1.48081769      0.77253737
H       3.51442414      1.73923449     -0.94738525
H       2.58884594     -0.72493816      0.63257385
H       2.36876284     -0.49273182     -1.11709656
H       0.01526231     -0.77660692     -0.78734217
H       0.50488636     -1.48665412      1.53434169
H      -0.33540275     -0.08885235      2.18058055
H      -1.78215112     -2.04402934      2.33979816
H      -1.56292283     -2.42562300      0.64022281
H      -3.73972626     -1.33697019      0.97673178
H      -2.98366150     -0.00395773      1.83520639
H      -4.79842365      0.56929250     -0.44981751
H      -3.74383244      1.65272807     -1.37186037
H      -3.82872257      1.78713044      0.38989729
H      -2.64254314     -0.34254807     -2.46163021
H      -3.70748032     -1.41647488     -1.54574088
H      -1.96106604     -1.65473142     -1.49939141
H      -1.16908454      1.32270567     -1.27288144
H      -1.39254194      1.64300694      0.43504381
