37
CC(NC(=O)C(N)c1ccccc1)c1ccccc1
C      -1.44880568      1.55517262     -2.52020878
C      -1.16696004      1.42481078     -1.02078195
N      -0.45227979      0.20093049     -0.72470586
C       0.89718512      0.03698015     -0.95743773
O       1.61943684      0.94363549     -1.36345504
C       1.40414021     -1.40482639     -0.67102889
N       0.32694312     -2.22783180     -0.05164596
C       2.64985831     -1.45223299      0.19296917
C       3.68974602     -2.33923195     -0.13010856
C       4.82711097     -2.42695799      0.67489537
C       4.93707625     -1.63615745      1.81633352
C       3.91008770     -0.75821391      2.15543918
C       2.77119969     -0.66905881      1.35269670
C      -2.43058984      1.48984615     -0.18212163
C      -2.50305317      2.38340421      0.89848130
C      -3.64813382      2.44976248      1.69480546
C      -4.73365574      1.61927446      1.42687967
C      -4.67411296      0.71926622      0.36549244
C      -3.52972890      0.65161676     -0.43204064
H      -0.51366593      1.60973368     -3.08831237
H      -2.02530058      2.46173966     -2.73435714
H      -2.00825836      0.69722469     -2.90898221
H      -0.51147544      2.26123091     -0.74536737
H      -0.96545295     -0.65667708     -0.53538615
H       1.61765365     -1.83330496     -1.65850042
H       0.69594426     -3.17427762      0.05175877
H       0.20874555     -1.89354694      0.90734449
H       3.62287365     -2.96671521     -1.01646258
H       5.62902390     -3.11111439      0.40958362
H       5.82458686     -1.70146534      2.44020383
H       3.99701334     -0.13799235      3.04391389
H       1.98378650      0.02666141      1.63622023
H      -1.66298270      3.03597845      1.12834791
H      -3.69108148      3.14934767      2.52557974
H      -5.62456501      1.67136196      2.04704852
H      -5.51888875      0.06723813      0.15878902
H      -3.50342079     -0.06561119     -1.24909115
