54
CN(C)C(=O)NC[C@@]1(C)C[C@H](NC(=O)N(C)C)CC(C)(C)C1
C       1.75286077      1.87302689     -2.48020374
N       3.05066099      1.47813153     -1.95310685
C       4.20621569      2.04677894     -2.62020506
C       3.25360624      0.55035646     -0.94789155
O       4.35978503      0.09506881     -0.66894896
N       2.11584846      0.16802814     -0.27892931
C       2.22029778     -0.75792125      0.83308411
C       0.89596516     -1.49416100      1.20824674
C       1.20714063     -2.25507286      2.51688380
C      -0.24020840     -0.48201648      1.47059602
C      -1.08061861     -0.23728440      0.21192743
N      -1.97093728      0.89941586      0.38606874
C      -1.45707222      2.17521788      0.33863472
O      -0.27305662      2.39019707      0.08478172
N      -2.37057020      3.17756691      0.60866411
C      -3.81752074      3.02142234      0.55139613
C      -1.88057390      4.53787612      0.74477019
C      -1.85514874     -1.49943404     -0.17812038
C      -1.01040630     -2.79933301     -0.08064104
C      -1.53848893     -3.66570032      1.07845985
C      -1.19972640     -3.61991826     -1.37558542
C       0.50758107     -2.49385530      0.07837383
H       1.79848138      1.88580053     -3.57657517
H       0.95951205      1.18361797     -2.18927801
H       1.52410653      2.87983444     -2.11405981
H       4.06764351      3.12856600     -2.71497419
H       5.13352597      1.85912699     -2.07046537
H       4.28790778      1.60026843     -3.61568477
H       1.48154778      0.94994946     -0.14613150
H       2.99485992     -1.50072049      0.60163188
H       2.58725348     -0.17116203      1.68518467
H       2.04352528     -2.95007054      2.37963276
H       1.48497630     -1.55852211      3.31704053
H       0.35759787     -2.83680008      2.87956833
H       0.17801592      0.45503329      1.85961794
H      -0.90630921     -0.84208773      2.26708662
H      -0.43042917      0.01281129     -0.63056797
H      -2.71763362      0.78008368      1.05470534
H      -4.11733496      2.06913186      0.10931778
H      -4.24031566      3.82721315     -0.05858680
H      -4.21184199      3.09475116      1.56790333
H      -2.01151320      5.05577609     -0.21033937
H      -0.82354444      4.55538029      1.01840025
H      -2.45376486      5.05067231      1.52249892
H      -2.75674807     -1.58725591      0.44232081
H      -2.23165089     -1.35785196     -1.19954580
H      -1.60327207     -3.10534815      2.01596159
H      -2.54948024     -4.03152900      0.86474680
H      -0.89894247     -4.54139861      1.24319917
H      -0.83953584     -3.06854794     -2.25363045
H      -2.25673625     -3.85829837     -1.54321379
H      -0.64814335     -4.56620340     -1.32864424
H       0.85830927     -2.08864343     -0.88144587
H       1.06429978     -3.43196720      0.20675516
