21
CCOc1ccc(N=C=S)cc1
C      -3.86846750      0.01043817     -0.33226064
C      -2.49258766      0.31762593      0.23114069
O      -1.54168884     -0.48248165     -0.46939158
C      -0.22934659     -0.34876556     -0.11140517
C       0.27021094      0.49329275      0.88167408
C       1.64515502      0.53043135      1.14451392
C       2.53794830     -0.26001776      0.41060350
N       3.91254959     -0.23711032      0.69820030
C       4.48645995      0.54974069      0.04076014
S       5.38784936      1.75107418     -0.95296672
C       2.02768877     -1.11934957     -0.56766255
C       0.65560037     -1.15586798     -0.83023796
H      -4.63762863      0.60084681      0.17347738
H      -3.90333408      0.22850779     -1.40483418
H      -4.10445871     -1.05248402     -0.21526303
H      -2.27562807      1.38207369      0.08491549
H      -2.48098752      0.07370693      1.29970410
H      -0.37897327      1.12914046      1.47421766
H       2.02053757      1.18014080      1.93165808
H       2.69688404     -1.76712053     -1.12803558
H       0.27221696     -1.82382215     -1.59811286
