24
C=CC(=O)Oc1c(Br)cc(Cl)c2cccnc12
C       4.30206848      1.57934815     -0.19533461
C       3.38009116      0.95784729      0.55076498
C       2.21826959      0.28844262     -0.07978588
O       1.99373065      0.26090846     -1.28058127
O       1.49134724     -0.30880200      0.93214504
C       0.29566061     -0.85405797      0.43604644
C       0.24353613     -2.21393201      0.11903664
Br      1.74490394     -3.34955224      0.33740097
C      -0.93699907     -2.75660664     -0.36638862
C      -2.05599343     -1.93609338     -0.51850966
Cl     -3.49470310     -2.68595262     -1.13005588
C      -2.01739095     -0.55897624     -0.17701745
C      -3.11808339      0.31945514     -0.29653814
C      -3.00527368      1.65611460      0.06547871
C      -1.79032706      2.09026271      0.54595221
N      -0.71297935      1.28999739      0.68076647
C      -0.81443835     -0.00957751      0.31894328
H       4.22838171      1.61194153     -1.27944604
H       5.15094623      2.07223767      0.26613702
H       3.45076800      0.92842460      1.63111194
H      -0.99292671     -3.81059654     -0.62707143
H      -4.07559479     -0.03094668     -0.67533373
H      -3.84436639      2.33631437     -0.02650919
H      -1.64062745      3.12379928      0.84508858
