30
CCN(CC)C(=O)CSc1ccc(Cl)nn1
C      -1.93725065      1.75507821     -0.93511720
C      -2.44041933      1.07991197      0.32965381
N      -1.75046601     -0.17863327      0.62415628
C      -2.20262191     -1.38093709     -0.07925234
C      -1.31821294     -1.74186469     -1.26495891
C      -0.63233419     -0.29545493      1.45505117
O      -0.13079062     -1.39851253      1.69326169
C      -0.07940732      0.98808951      2.07851577
S       1.67498220      0.82336486      2.55847179
C       2.36345904      0.42429623      0.96797165
C       3.39177253     -0.49978725      0.86367120
C       3.90200391     -0.79578421     -0.39762231
C       3.35794357     -0.14264077     -1.48417372
Cl      3.90748439     -0.43723270     -3.07743749
N       2.36917351      0.76480894     -1.36859314
N       1.87112184      1.05353876     -0.12423419
H      -2.41409664      2.73283850     -1.05583471
H      -2.17487592      1.15968112     -1.82120811
H      -0.85378898      1.90243525     -0.90964296
H      -3.51393760      0.87551964      0.24660910
H      -2.32852111      1.76331425      1.17668310
H      -2.20541539     -2.21700482      0.63002879
H      -3.23765799     -1.24038971     -0.40906710
H      -0.28295167     -1.91701186     -0.95563482
H      -1.30804031     -0.94633555     -2.01466432
H      -1.68653578     -2.65380559     -1.74518106
H      -0.66368654      1.20758624      2.97727405
H      -0.15645273      1.83634994      1.39624666
H       3.78231137     -0.99958481      1.74427314
H       4.69721128     -1.52183364     -0.51864041
