55
CC1(C)SC2C(NC(=O)C(NC(=O)N3CCNC3=O)c3ccccc3)C(=O)N2C1C(=O)O
C       4.87001689      2.21702311      0.86492778
C       4.73694955      0.81896300      1.48534823
C       5.74431661      0.64241847      2.62394436
S       3.02771752      0.65704829      2.18600422
C       2.33709673      0.19947444      0.55285839
C       1.56999823     -1.14486788      0.49851636
N       0.37011762     -1.19657100     -0.38356393
C      -0.72984781     -0.39751788     -0.13517056
O      -0.71349948      0.45961721      0.74797933
C      -1.93667916     -0.63645265     -1.07978952
N      -3.17040097     -0.45109890     -0.34063330
C      -3.61580370     -1.43182250      0.50395718
O      -3.10528050     -2.55130671      0.53112578
N      -4.66868639     -1.07122971      1.32014094
C      -5.21859088     -1.99649294      2.28447352
C      -6.39115477     -1.24420146      2.88950630
N      -6.09537527      0.13004074      2.60100128
C      -5.16015347      0.22105367      1.57890754
O      -4.86294032      1.25804239      1.00781925
C      -1.87357236      0.29067032     -2.28042678
C      -1.89267807      1.68683868     -2.12817173
C      -1.82831705      2.52599232     -3.24201591
C      -1.74093872      1.98270418     -4.52086193
C      -1.72676508      0.60049173     -4.68873675
C      -1.79629914     -0.24211630     -3.57751827
C       2.86318630     -1.68323037     -0.16033128
O       3.29408600     -2.74977263     -0.52915111
N       3.46685836     -0.45228030     -0.15873896
C       4.79725017     -0.33462450      0.46518050
C       5.89290349     -0.15985612     -0.58599109
O       7.07446288      0.00645442     -0.32169743
O       5.43874848     -0.19370124     -1.85984727
H       4.18559244      2.36669447      0.02226821
H       5.88610259      2.38630173      0.49020394
H       4.67115892      3.00399715      1.60264252
H       6.77266841      0.70841189      2.25172460
H       5.63865865     -0.33176442      3.11642802
H       5.62771502      1.42019967      3.38827411
H       1.92298886      1.02981259     -0.02744627
H       1.36190639     -1.61877471      1.46491599
H       0.24973530     -1.98950215     -1.00637982
H      -1.90141799     -1.67951756     -1.41866437
H      -3.41318575      0.49957462     -0.07026508
H      -4.44687090     -2.20199222      3.03407771
H      -5.50714199     -2.94009555      1.81255820
H      -6.49551575     -1.39642945      3.96576820
H      -7.33066253     -1.49701573      2.38904336
H      -6.69383486      0.92348157      2.79847928
H      -1.96303484      2.13510538     -1.13819367
H      -1.85338446      3.60404408     -3.10867793
H      -1.69439346      2.63762344     -5.38729999
H      -1.66777393      0.17716648     -5.68825867
H      -1.79613732     -1.31808235     -3.73559178
H       5.01158158     -1.28816417      0.97037952
H       4.47851989     -0.39076464     -1.87503124
