17
NC(=O)CC(N)C(=O)O
N       1.86241605     -2.04054639      0.25587200
C       1.13089179     -1.02778554     -0.28184093
O       1.12836521     -0.80685483     -1.49001692
C       0.30025351     -0.24321395      0.70411834
C      -0.33432057      0.97219218      0.02780176
N      -0.76812680      1.93058381      1.08169900
C      -1.56031199      0.56140515     -0.81424622
O      -2.71651674      0.78202283     -0.47206181
O      -1.26648056     -0.05586053     -1.97862861
H       2.45630812     -2.58412664     -0.35843093
H       1.94333250     -2.19223521      1.25293218
H      -0.46224637     -0.90916274      1.12531517
H       0.96839943      0.07572782      1.51411468
H       0.37129238      1.50326038     -0.62083538
H      -1.17118691      2.74673328      0.61244397
H      -1.58042198      1.51983547      1.55558954
H      -0.30164706     -0.23197509     -2.11382585
