44
CC12CCC3c4ccc(O)cc4CCC3C1CCC2O
C      -2.33069705      1.91432652      0.46943448
C      -2.27804416      0.41523786      0.12876568
C      -1.70828950     -0.37403914      1.32716425
C      -0.19283209     -0.24197239      1.46504987
C       0.53871265     -0.69749379      0.18938815
C       2.04657624     -0.59729459      0.37512212
C       2.68937875     -1.49920467      1.24255831
C       4.06662116     -1.43529397      1.45024959
C       4.81388330     -0.47360847      0.78852567
O       6.15846803     -0.44622754      1.01376788
C       4.20505303      0.42627214     -0.08037977
C       2.81594138      0.37702141     -0.28919966
C       2.20065463      1.33207696     -1.27954942
C       0.68567576      1.45192665     -1.13749040
C       0.04188965      0.05847210     -1.06679072
C      -1.49774980      0.11925936     -1.17358591
C      -2.08413423     -1.22374770     -1.66190946
C      -3.48823830     -1.33112323     -1.07434518
C      -3.69882625     -0.05974558     -0.26047338
O      -4.53217775     -0.32229619      0.85398885
H      -3.03942376      2.10698694      1.28265309
H      -1.36589111      2.30705298      0.79462392
H      -2.65403293      2.50656950     -0.39388415
H      -1.94733877     -1.44094341      1.23389152
H      -2.18266429     -0.04154628      2.25914588
H       0.12450141     -0.85232235      2.32009000
H       0.07832771      0.78870593      1.72177211
H       0.31277350     -1.76196925      0.03514332
H       2.11557370     -2.26268275      1.76363472
H       4.55245899     -2.13545569      2.12323216
H       6.54376304      0.27350338      0.48837981
H       4.79806084      1.16880190     -0.60647341
H       2.44452024      0.97995239     -2.28977081
H       2.64362985      2.32840793     -1.16169317
H       0.46366005      2.03589805     -0.24037770
H       0.29230726      2.01657140     -1.99095736
H       0.40370061     -0.48883770     -1.95093042
H      -1.76719671      0.86996347     -1.93080627
H      -2.10958433     -1.25683658     -2.75689122
H      -1.48751496     -2.08132753     -1.33310809
H      -3.58040906     -2.23046041     -0.45405467
H      -4.24466324     -1.41819582     -1.86211948
H      -4.19973378      0.68511779     -0.89234011
H      -4.64668970      0.51050035      1.34171438
