38
C=C(C)C(=O)OCCOCCOCCCC
C       7.04821417     -1.00735913     -0.70342082
C       6.21548164     -0.19367450     -0.03222115
C       6.62694541      1.16060054      0.45487290
C       4.82967907     -0.67681547      0.23072195
O       4.40021182     -1.76625721     -0.11660160
O       4.12593894      0.27233397      0.89687357
C       2.77646191     -0.08251384      1.23374974
C       1.83580624      0.10510618      0.04707594
O       0.49147243     -0.12051750      0.47206560
C      -0.42861202      0.02298563     -0.61057498
C      -1.84577406     -0.23362984     -0.10864945
O      -2.76236418     -0.07668379     -1.19127809
C      -4.11403287     -0.36531348     -0.83077292
C      -4.75726127      0.81542979     -0.10530060
C      -6.26292076      0.65358998      0.10300328
C      -6.62424732     -0.50064308      1.02501859
H       8.06951180     -0.71598786     -0.92591881
H       6.73271722     -1.98914311     -1.04867764
H       6.53595177      1.22331214      1.54426327
H       6.00336786      1.93931953      0.00349234
H       7.66820167      1.38561777      0.19959131
H       2.46527664      0.57186176      2.05608929
H       2.72219203     -1.10418881      1.63042122
H       1.93592850      1.12364395     -0.34667472
H       2.09339108     -0.59069710     -0.75921633
H      -0.18403030     -0.68749727     -1.40933112
H      -0.36014091      1.03418816     -1.02935615
H      -2.07935859      0.46849347      0.69878258
H      -1.91322974     -1.24885276      0.30013820
H      -4.65286160     -0.55272486     -1.76588302
H      -4.15732465     -1.28626903     -0.23909529
H      -4.26937155      0.97518163      0.86299963
H      -4.57269862      1.72937458     -0.68379400
H      -6.76125797      0.51796458     -0.86388036
H      -6.65643931      1.58165513      0.53450675
H      -7.70360480     -0.51162999      1.20768532
H      -6.35297687     -1.46495207      0.58548602
H      -6.11824278     -0.40530811      1.99091497
