35
Cc1nc(C(C)(C)C)nc2nc(N)c(C#N)c(N)c12
C       0.79698055     -2.91585999      0.16098091
C       0.39792947     -1.47592919      0.02604919
N      -0.93458449     -1.28496633      0.14550268
C      -1.39632676     -0.03357145      0.07508441
C      -2.89342205      0.20097185      0.25845078
C      -3.17898494      0.36870047      1.75936995
C      -3.70781919     -0.98977676     -0.28442996
C      -3.34953705      1.46812960     -0.49088435
N      -0.59904638      1.02811939     -0.06064344
C       0.70465870      0.84382236     -0.18374584
N       1.40469802      1.96828758     -0.29151145
C       2.74094749      1.93661984     -0.37366229
N       3.34159344      3.19006607     -0.47510661
C       3.45290775      0.74881705     -0.41375567
C       4.87978880      0.77544775     -0.52003740
N       6.03829208      0.75171536     -0.59800869
C       2.73893088     -0.46410311     -0.38069248
N       3.44408645     -1.69442072     -0.37599395
C       1.31161928     -0.41836187     -0.18588025
H       1.57906733     -3.03998537      0.91523368
H       1.11964748     -3.31764516     -0.80344907
H      -0.05486822     -3.52222344      0.49080164
H      -4.24561389      0.54117709      1.94250577
H      -2.62715202      1.21829131      2.17920487
H      -2.88406133     -0.52332647      2.32494533
H      -3.49312660     -1.16671437     -1.34519363
H      -3.48492998     -1.91666106      0.25723058
H      -4.78465327     -0.80935391     -0.18707757
H      -3.12093851      1.40012059     -1.56103148
H      -2.85860170      2.36903175     -0.10448389
H      -4.43041101      1.61973667     -0.38921411
H       4.08437960      3.34375968      0.19910928
H       2.60735844      3.89183842     -0.38984497
H       4.42134041     -1.64844912     -0.66480501
H       2.97985125     -2.44330451     -0.88016690
