29
O=C1CN=C(c2ccccn2)c2cc(Br)ccc2N1
O      -2.33800691      3.59587940      0.93212273
C      -1.94609477      2.54920801      0.41383301
C      -1.13685102      2.52529431     -0.87187360
N       0.18195176      1.95341886     -0.63055715
C       0.28673940      0.69510614     -0.34859215
C       1.66785309      0.16500954     -0.05151720
C       2.78936023      0.91428053     -0.39502603
C       4.04892740      0.40891956     -0.08439216
C       4.14953030     -0.81738752      0.56201793
C       2.98089702     -1.49216226      0.87446570
N       1.74471354     -1.03153361      0.58410786
C      -0.87227957     -0.25078926     -0.26711918
C      -0.74292109     -1.52697181     -0.84072884
C      -1.72660681     -2.49123604     -0.63387566
Br     -1.52777847     -4.21250842     -1.38882004
C      -2.84381952     -2.20311134      0.14268697
C      -2.99598782     -0.92589521      0.68560706
C      -2.03910696      0.07120134      0.44660365
N      -2.33715186      1.34803108      0.94613822
H      -1.00917514      3.55991063     -1.20887556
H      -1.68440284      2.00272201     -1.66446737
H       2.68876507      1.87481775     -0.89006164
H       4.94203570      0.97251868     -0.33968816
H       5.11625782     -1.23514621      0.82126811
H       3.00980161     -2.45131782      1.38441813
H       0.14271758     -1.78041716     -1.41865256
H      -3.60644684     -2.95722420      0.32071415
H      -3.89199649     -0.70891069      1.26319460
H      -3.05092444      1.44829370      1.65706917
