34
CCCCCCCCCCN
C      -5.07195375      0.71033878     -1.06129329
C      -4.80236720      0.06285139      0.28819053
C      -3.40605553      0.35838707      0.83987349
C      -2.28075587     -0.24775596     -0.00165869
C      -0.91535919     -0.01462376      0.64918388
C       0.21192308     -0.61649791     -0.19164628
C       1.57722903     -0.38402231      0.45966388
C       2.70324104     -0.98325682     -0.38566888
C       4.08208070     -0.88310679      0.27765210
C       4.58244055      0.53868961      0.54096631
N       4.69006867      1.31541357     -0.68765280
H      -4.89922963      1.79040673     -1.02076411
H      -4.43625333      0.28654522     -1.84409681
H      -6.11339670      0.54479677     -1.35550948
H      -4.95114816     -1.02033859      0.20937032
H      -5.54428032      0.43296194      1.00588594
H      -3.34857234     -0.04437815      1.85875893
H      -3.26478375      1.44308034      0.92083984
H      -2.28034933      0.19593920     -1.00356511
H      -2.45068336     -1.32445605     -0.12207594
H      -0.90433271     -0.46125718      1.65086898
H      -0.74696065      1.06209353      0.77305545
H       0.20232997     -0.16956993     -1.19323942
H       0.04219134     -1.69293489     -0.31591140
H       1.73438793      0.69304898      0.58536534
H       1.58823499     -0.83432805      1.45951823
H       2.49029321     -2.04488655     -0.56391597
H       2.72351796     -0.50242810     -1.37082423
H       4.80888322     -1.40688908     -0.35668136
H       4.05949620     -1.42654777      1.23052681
H       3.92040868      1.05651625      1.24191748
H       5.56917037      0.48601977      1.01481521
H       5.09731354      2.22578359     -0.47821318
H       5.33327133      0.85440516     -1.32984426
