43
CCOC(=O)CN(C(=O)CCl)c1c(CC)cccc1CC
C       4.41312311      0.38965941      1.43939819
C       3.97200570      0.99740608      0.12143897
O       2.61842859      0.61905808     -0.16328403
C       2.45274330     -0.54528364     -0.85075892
O       3.36761494     -1.29490099     -1.17829675
C       0.98552948     -0.86154010     -1.13824853
N       0.02488677      0.16236848     -0.70104990
C      -0.04035048      1.33317076     -1.46735535
O       0.74196024      1.53042745     -2.40332420
C      -1.06212933      2.39206913     -1.07300629
Cl     -2.20881462      2.64522696     -2.40453474
C      -1.09417426     -0.31216673      0.03624030
C      -1.03290068     -0.30077623      1.44926613
C       0.19128101      0.13106741      2.22640752
C       0.30024487      1.63965786      2.38015239
C      -2.16337170     -0.69992892      2.18170590
C      -3.31904199     -1.12749441      1.53656038
C      -3.35823729     -1.18037244      0.14715234
C      -2.25110840     -0.78780299     -0.62542073
C      -2.35518107     -0.96533990     -2.12627272
C      -2.17644929     -2.42063306     -2.53969126
H       5.42536972      0.71381460      1.69659229
H       3.73237077      0.68342380      2.24526865
H       4.39713128     -0.70385897      1.39194502
H       4.64730540      0.71892605     -0.69567118
H       3.98993459      2.08964616      0.19484058
H       0.87946087     -1.00103778     -2.22016249
H       0.76457148     -1.80730353     -0.62918484
H      -0.53002977      3.33115480     -0.89233831
H      -1.62762971      2.15238259     -0.17283675
H       1.09406660     -0.27558947      1.76212103
H       0.16484897     -0.32172260      3.22626365
H      -0.59843210      2.05759113      2.84587156
H       0.44214131      2.13529897      1.41648462
H       1.15832753      1.89207710      3.01144696
H      -2.14766020     -0.68275696      3.27004437
H      -4.18490521     -1.43603301      2.11726292
H      -4.26254432     -1.54362951     -0.33870892
H      -3.33601612     -0.60548731     -2.46162146
H      -1.62172510     -0.35915408     -2.66183157
H      -2.95082647     -3.06038101     -2.10335464
H      -2.23876504     -2.51350070     -3.62871680
H      -1.20305336     -2.80773248     -2.22079340
