27
O[Si](O)(c1ccccc1)c1ccccc1
O       0.42446938     -2.27542039     -1.56230082
Si     -0.05693067     -0.71843277     -1.31429946
O      -0.61014828     -0.06773821     -2.72426679
C       1.35909669      0.31023529     -0.70189487
C       1.17370325      1.66054029     -0.34790235
C       2.24108333      2.43887236      0.10855783
C       3.51334005      1.88478706      0.21805762
C       3.72041480      0.55242352     -0.12780646
C       2.65434899     -0.22803866     -0.58389991
C      -1.39063039     -0.70817428     -0.02609502
C      -1.13302999     -1.14727887      1.28685374
C      -2.13858969     -1.14547264      2.25757690
C      -3.42005717     -0.70761110      1.93546498
C      -3.69808177     -0.27058302      0.64341103
C      -2.69388563     -0.27088170     -0.32881785
H      -0.30407976     -2.91206564     -1.62645793
H       0.08884590      0.19594114     -3.34240708
H       0.18931975      2.12372823     -0.41826210
H       2.07573295      3.47818586      0.38053739
H       4.34227213      2.49028798      0.57414671
H       4.71251624      0.11667767     -0.04242958
H       2.84907658     -1.26826001     -0.84601366
H      -0.13930808     -1.49262845      1.57278149
H      -1.91776018     -1.48467787      3.26636829
H      -4.20083456     -0.70542885      2.69107143
H      -4.69750022      0.07283578      0.38913711
H      -2.94338365      0.07817729     -1.33111065
