19
COC(=O)c1ccc(O)cc1
C       3.63205213     -0.03898142     -0.69657827
O       2.20704086     -0.05650157     -0.79055473
C       1.57507231      0.04629000      0.40519547
O       2.11862672      0.14705389      1.49404135
C       0.09758124      0.02072690      0.22496377
C      -0.71007969      0.11773309      1.36865504
C      -2.10300377      0.09876623      1.25621659
C      -2.68399065     -0.01739401     -0.00231403
O      -4.03741949     -0.04018124     -0.16035923
C      -1.89834594     -0.11449674     -1.14551148
C      -0.50568260     -0.09572557     -1.03524651
H       3.98785511     -0.88839005     -0.10503846
H       3.97636483      0.90628474     -0.26538030
H       4.03913396     -0.12670991     -1.70768111
H      -0.25442128      0.20862010      2.35329943
H      -2.70911470      0.17505790      2.15360381
H      -4.45597078      0.03517405      0.71305143
H      -2.36861818     -0.20466919     -2.12110441
H       0.09291994     -0.17265721     -1.93925837
