26
CC(=O)OC(C)CC(C)C
C       3.23282692      1.15827743     -0.78776737
C       2.40698940      0.53757473      0.29697762
O       2.65337808      0.63111431      1.49065407
O       1.35791016     -0.13519849     -0.24944299
C       0.46476809     -0.78086970      0.67740437
C       1.01154566     -2.16775891      1.00792601
C      -0.91556866     -0.89458350      0.01085271
C      -1.52620452      0.45253159     -0.42927143
C      -2.85285316      0.20623852     -1.15300487
C      -1.74898992      1.40478554      0.74622021
H       4.07031353      1.70107665     -0.34020817
H       3.63221868      0.37885991     -1.44147594
H       2.62475365      1.86525769     -1.35775219
H       0.37457848     -0.19850644      1.60159726
H       0.33873656     -2.70901512      1.68011879
H       1.99274678     -2.09474219      1.48835336
H       1.15212594     -2.76075816      0.09745554
H      -1.60621319     -1.40691799      0.69289123
H      -0.82164195     -1.52705286     -0.88235161
H      -0.84696123      0.93904460     -1.14020075
H      -3.58399181     -0.27147378     -0.49188669
H      -2.70709798     -0.44241372     -2.02327217
H      -3.28285827      1.14843437     -1.50917676
H      -2.25483367      2.31840741      0.41543857
H      -0.80002166      1.70800385      1.19860880
H      -2.36565589      0.93968426      1.52264312
