26
CC1(C)S[C@@H]2[C@H](N)C(=O)N2[C@H]1C(=O)O
C      -1.84401752     -1.00052244     -1.00927394
C      -0.90597159     -0.94792076      0.20432725
C      -1.43843052     -1.83803000      1.32959601
S       0.75135145     -1.59740706     -0.31862478
C       1.23675266      0.03338485     -1.00818847
C       2.55245070      0.69697727     -0.52137698
N       3.45495984     -0.24747516      0.16773793
C       1.61744121      1.51902000      0.40448543
O       1.72288903      2.25809913      1.35378871
N       0.48361910      1.01560998     -0.18372193
C      -0.57422013      0.47580401      0.69066226
C      -1.78819349      1.40422631      0.74649123
O      -2.84137110      1.12060039      1.29890140
O      -1.59499880      2.59900590      0.13897190
H      -1.51124540     -0.34601563     -1.82245467
H      -1.92531375     -2.01839547     -1.40917424
H      -2.85836589     -0.68808251     -0.73754587
H      -2.41474286     -1.48615127      1.67983887
H      -1.57043485     -2.87404336      0.99583630
H      -0.76671760     -1.84737188      2.19589742
H       1.02716118      0.15630789     -2.07565997
H       3.05730406      1.31806120     -1.26837244
H       2.96583904     -1.02633217      0.61698248
H       4.01032381      0.19246519      0.90335774
H      -0.17429044      0.44741554      1.71460845
H      -0.67177815      2.68077005     -0.17954780
