34
O=C(Nc1ccccc1)C(O)COc1ccccc1
O      -0.92633615     -1.67905431      0.17111156
C      -1.08173818     -0.78961323     -0.65825676
N      -2.14523364      0.09612351     -0.73844513
C      -3.25456814      0.20726659      0.11765206
C      -4.19048621      1.20751187     -0.17547721
C      -5.32101441      1.38352287      0.62666859
C      -5.52562911      0.56001401      1.73020038
C      -4.60014145     -0.43710371      2.02916698
C      -3.46854232     -0.61332963      1.22597965
C      -0.10496149     -0.58048553     -1.83131686
O      -0.17311002      0.75564954     -2.34958778
C       1.33208898     -0.91794749     -1.42739172
O       1.80945116      0.14256978     -0.58607654
C       3.08638211      0.03099016     -0.10954184
C       3.48368684      1.06625509      0.74115575
C       4.76479115      1.08015374      1.29532383
C       5.65921838      0.05472818      0.99997060
C       5.27016757     -0.98124936      0.15264552
C       3.98629730     -0.99454649     -0.40214782
H      -2.07866206      0.76042430     -1.50637239
H      -4.05328871      1.86279013     -1.03170457
H      -6.04020740      2.16289411      0.38910130
H      -6.40343859      0.69363179      2.35679896
H      -4.75422026     -1.08301595      2.88992167
H      -2.77244530     -1.40133129      1.49516099
H      -0.43083712     -1.25897067     -2.62790418
H       0.40491956      1.28609576     -1.76262808
H       1.94812803     -0.94622572     -2.33442525
H       1.38143322     -1.88144674     -0.90764136
H       2.78844947      1.86730689      0.97915536
H       5.06099587      1.88896486      1.95784583
H       6.65693079      0.06097296      1.43099481
H       5.96721435     -1.78350450     -0.07643040
H       3.72470580     -1.82004153     -1.05511653
