6
FC(F)=C(F)Cl
F       0.70909913      1.57334022      0.46278811
C       0.57207838      0.23558639      0.33492918
F       1.52085894     -0.57879276      0.84559699
C      -0.48542193     -0.29019346     -0.28755179
F      -0.58737033     -1.63354489     -0.39562257
Cl     -1.72924419      0.69360450     -0.96013992
