20
CN(C)c1cc[nH+]cc1
C      -1.94662565     -0.98274835      1.03651518
N      -1.30239245     -0.23610621     -0.04888083
C      -2.17979431      0.68038101     -0.78427918
C       0.07657481     -0.05941258     -0.06407456
C       0.70453792      0.81782148     -0.96054776
C       2.08929123      0.96080087     -0.98037702
N       2.84621551      0.24993319     -0.13618880
C       2.30938702     -0.60909937      0.73833912
C       0.92835650     -0.77863186      0.78723795
H      -1.58004496     -2.01412995      1.07522241
H      -1.77107057     -0.49419672      2.00112130
H      -3.03051625     -1.05128923      0.89230082
H      -2.07909513      1.70278659     -0.40413126
H      -3.23318190      0.39426549     -0.69031692
H      -1.95542953      0.66346218     -1.85619516
H       0.12927089      1.40716460     -1.66953520
H       2.60417739      1.63003534     -1.66127951
H       3.86047395      0.36245387     -0.16329511
H       2.99397120     -1.15028756      1.38259869
H       0.53589434     -1.49320279      1.50576584
