30
C=CC(=O)OCC1(CC)COCOC1
C       4.96621494     -0.02890222     -0.11888974
C       3.68928009     -0.04099918      0.28369188
C       2.58809800      0.14337498     -0.68524038
O       2.72546001      0.32318615     -1.88314706
O       1.41840287      0.06750240     -0.00311246
C       0.24773608      0.25667830     -0.81581027
C      -1.02471213     -0.00164791      0.02908918
C      -0.97959159     -1.37944322      0.74104715
C      -0.81991542     -2.58542377     -0.17647055
C      -1.15376298      1.09657229      1.10429869
O      -1.37200146      2.37571462      0.51558869
C      -2.53460800      2.36941923     -0.30076090
O      -2.41498962      1.44263740     -1.37124583
C      -2.25814084      0.11346235     -0.88297806
H       5.23148095      0.11596171     -1.16313931
H       5.77478737     -0.16201561      0.59166202
H       3.42394761     -0.18282354      1.32390098
H       0.28174456     -0.43512571     -1.66662260
H       0.26070246      1.27944627     -1.21172847
H      -1.90191375     -1.51557937      1.32106129
H      -0.16106712     -1.39288623      1.47202815
H      -1.63711367     -2.65338726     -0.89987590
H       0.12808449     -2.55583775     -0.72087624
H      -0.82787418     -3.50560509      0.41729946
H      -1.98309295      0.88487630      1.79168262
H      -0.24694809      1.16258069      1.71548484
H      -3.43026826      2.16087318      0.29742513
H      -2.64650004      3.36796215     -0.73272131
H      -2.16845745     -0.54229572     -1.75537834
H      -3.17498189     -0.17827544     -0.35507612
