30
CCOC(=O)c1ccccc1C(=O)OCC
C       0.66696890      2.70974361     -2.06653181
C       1.51924342      1.90241813     -1.10737916
O       0.92765507      0.60544291     -0.97059555
C       1.53893058     -0.18921230     -0.05975890
O       2.54497820      0.07053221      0.57850561
C       0.86212818     -1.50088356     -0.02298405
C       1.68144347     -2.63992173     -0.05180148
C       1.11299394     -3.91463224     -0.08517543
C      -0.27348701     -4.06041226     -0.09017412
C      -1.09484984     -2.93253841     -0.04120834
C      -0.53058112     -1.64872437      0.01300745
C      -1.46511149     -0.51206992      0.13369181
O      -2.50770141     -0.42463343     -0.49267992
O      -1.02600741      0.32879542      1.10058921
C      -1.87341198      1.46206824      1.32065637
C      -1.20086939      2.36215213      2.33832813
H       1.08008433      3.71248512     -2.20656383
H       0.60605558      2.21268403     -3.04031873
H      -0.35747282      2.79848443     -1.68996743
H       2.53473715      1.80123903     -1.50584946
H       1.55275254      2.40297297     -0.13307386
H       2.76518258     -2.53409594     -0.06171720
H       1.75282370     -4.79399980     -0.11507041
H      -0.71619939     -5.05358616     -0.12445025
H      -2.17680164     -3.05534919     -0.03187078
H      -2.84279368      1.12515924      1.70410748
H      -2.01723043      2.00950654      0.38226629
H      -0.21999114      2.68730126      1.97595614
H      -1.03097977      1.82385895      3.27663393
H      -1.81248912      3.24521510      2.54298420
