43
CCCCCCC(CCCC)COS(=O)(=O)[O-].[Na+]
C       4.98637010     -2.19410500     -0.40149761
C       4.86838460     -1.00657046     -1.34430007
C       3.42259903     -0.59973691     -1.63666867
C       2.68193682     -0.06814530     -0.40750641
C       1.27861046      0.42252586     -0.77561846
C       0.53345851      0.94439734      0.45625184
C      -0.83353825      1.58190387      0.13325270
C      -1.81157068      0.64630931     -0.61526652
C      -2.18307930     -0.63664148      0.13498983
C      -3.15374853     -1.49066486     -0.68321529
C      -3.53004901     -2.76635950      0.05346186
C      -1.44654101      2.15655632      1.42409321
O      -2.66266715      2.81420137      1.12156304
S      -3.62325020      3.22344004      2.37477794
O      -4.67816069      4.01330813      1.74889088
O      -4.05883508      1.93516460      2.90689115
O      -2.73974164      3.97821659      3.25960263
Na      0.00000000      0.00000000      0.00000000
H       4.62417159     -1.94839336      0.60096802
H       4.41767042     -3.05123025     -0.77558734
H       6.03429784     -2.49726688     -0.30925721
H       5.41927316     -0.15475633     -0.92887330
H       5.35423044     -1.26578582     -2.29259336
H       2.87801959     -1.45439013     -2.05628989
H       3.43568672      0.17729683     -2.41106209
H       3.25368780      0.75463364      0.03830484
H       2.59825197     -0.85515807      0.35034441
H       1.35298075      1.21945152     -1.52513932
H       0.72238679     -0.40459802     -1.23031424
H       0.41028846      0.13112335      1.18172305
H       1.16025517      1.69976769      0.94845558
H      -0.65683819      2.43110741     -0.54215837
H      -2.73033978      1.20058750     -0.84621740
H      -1.38236431      0.38207065     -1.58936011
H      -1.28298318     -1.22364446      0.34765694
H      -2.64738548     -0.39027103      1.09606797
H      -4.06361256     -0.91819515     -0.89802187
H      -2.69926177     -1.75227891     -1.64587103
H      -4.01664853     -2.53942832      1.00743734
H      -2.64509785     -3.37814458      0.25572435
H      -4.22386561     -3.36119022     -0.54876733
H      -0.75516694      2.88477814      1.86402858
H      -1.60781447      1.36011483      2.15909974
