30
CC1(C(=O)O)CCC(C(=O)O)C1(C)C
C      -1.97775957     -0.02492599     -1.46968056
C      -1.06257020     -0.39798942     -0.29187279
C      -1.91304339     -0.50408521      0.98351273
O      -1.74614494     -1.28403396      1.90770347
O      -2.89770045      0.41184947      1.06046396
C      -0.41530503     -1.77519642     -0.55879061
C       0.89944245     -1.79168130      0.22699100
C       1.11876286     -0.36583516      0.75873099
C       2.57846566      0.03366685      0.74936222
O       3.47575738     -0.45058247      0.08148699
O       2.83469507      1.05280417      1.59273593
C       0.18210850      0.53711995     -0.09133577
C      -0.15319566      1.84718089      0.64288705
C       0.83937746      0.92177086     -1.44014249
H      -1.47341705     -0.13255190     -2.43570987
H      -2.32930173      1.00969164     -1.39315961
H      -2.86310281     -0.67142104     -1.49712039
H      -3.32265842      0.23125005      1.92533342
H      -0.19116259     -1.90841210     -1.62440512
H      -1.05804177     -2.61359895     -0.26682297
H       1.71230423     -2.14318709     -0.41758736
H       0.83688229     -2.49696179      1.06413692
H       0.80145473     -0.36220642      1.81100268
H       3.79788828      1.20547743      1.49349677
H      -0.93499987      2.40534337      0.11669648
H      -0.49627875      1.66892011      1.66722093
H       0.72363054      2.50048680      0.71075229
H       1.12920672      0.04393376     -2.02618298
H       1.74124813      1.52544904     -1.28788701
H       0.16345793      1.52772482     -2.05335457
