35
CCCCC(CC)COCC1CO1
C       3.51775788     -2.43257943      1.12123132
C       2.76563509     -1.15624644      1.46325310
C       1.99921025     -0.61642077      0.25446195
C       1.23697754      0.66407869      0.60883015
C       0.56637178      1.34939726     -0.60584226
C      -0.05825426      2.68081885     -0.12884044
C      -0.63871345      3.52762177     -1.25275197
C      -0.46069079      0.43910557     -1.30162483
O      -1.49338139      0.08197292     -0.38566278
C      -2.46060440     -0.77587741     -0.98775343
C      -3.49382331     -1.09989046      0.03521863
C      -3.30140102     -2.23605146      1.00202595
O      -4.15379616     -2.35856580     -0.14816012
H       4.24516783     -2.25706573      0.32223767
H       4.05889983     -2.80030158      1.99863987
H       2.82921587     -3.21780527      0.79309423
H       2.06922088     -1.35823352      2.28542219
H       3.47899644     -0.40383137      1.81913235
H       1.30162471     -1.38600079     -0.09382262
H       2.70020659     -0.41365696     -0.56398991
H       0.48515130      0.43819583      1.37566915
H       1.94110374      1.37269584      1.06434703
H       1.35068789      1.58629756     -1.33703254
H      -0.83958254      2.49074668      0.61698683
H       0.71467001      3.27558740      0.37425422
H      -1.52627366      3.06214316     -1.69066556
H      -0.94010784      4.50656556     -0.86587423
H       0.09856292      3.68944271     -2.04520840
H       0.02625641     -0.46760220     -1.67712683
H      -0.89962524      0.94697673     -2.16736760
H      -1.96796465     -1.68402269     -1.35486893
H      -2.93177519     -0.26282536     -1.83346733
H      -4.08277441     -0.24590661      0.33903322
H      -2.36063148     -2.77190921      0.99387102
H      -3.77631717     -2.16685349      1.97235091
