27
CCCC(C)CC(C)O
C       2.95059394      1.27562272     -0.64407223
C       1.74290882      0.36500387     -0.81313795
C       1.29525207     -0.21670555      0.53050316
C       0.08155039     -1.16683413      0.46314775
C       0.43020705     -2.46098917     -0.28117654
C      -1.18917006     -0.54114419     -0.15281092
C      -1.67957381      0.73077205      0.54923121
C      -2.96482409      1.24653194     -0.08635347
O      -1.92833858      0.44285004      1.92169668
H       3.25665431      1.68252287     -1.61296243
H       3.79936158      0.72775593     -0.22246061
H       2.71892482      2.11531328      0.01896519
H       0.93236927      0.94261108     -1.26942201
H       2.00476438     -0.43865857     -1.50912228
H       1.07072514      0.60523014      1.22123977
H       2.13752958     -0.75837232      0.98104104
H      -0.15122276     -1.45439713      1.49735035
H       1.32875828     -2.92421843      0.13965872
H       0.60365099     -2.28304277     -1.34711993
H      -0.38691065     -3.18554961     -0.19500702
H      -1.02823050     -0.33354978     -1.21771401
H      -1.98650673     -1.29538585     -0.10067399
H      -0.91777984      1.51518854      0.49851492
H      -3.30838938      2.15191767      0.42560412
H      -3.77082365      0.51003984      0.00427510
H      -2.81863638      1.48073402     -1.14514942
H      -2.22284420      1.26675352      2.34595480
