19
CC/C=C\CCO
C      -2.73229126     -0.36054075     -0.29321838
C      -1.48806963      0.38137016     -0.75450011
C      -0.66111688      0.84117337      0.41226025
C       0.53553465      0.37059596      0.80013851
C       1.31490235     -0.76559783      0.18888700
C       2.55795283     -0.27413384     -0.55270407
O       2.20315266      0.38223798     -1.76585636
H      -3.33424811     -0.66218098     -1.15639377
H      -2.46840825     -1.26362903      0.26752258
H      -3.35610963      0.27023405      0.34917948
H      -1.78550450      1.26246421     -1.33530529
H      -0.91603878     -0.25402123     -1.43707851
H      -1.09314513      1.65977678      0.98848728
H       1.00224938      0.83460639      1.66930164
H       1.62252069     -1.43415517      1.00162368
H       0.69003341     -1.35704110     -0.48731306
H       3.19389370     -1.12518376     -0.81569311
H       3.15124741      0.41506961      0.05760716
H       1.56344509      1.07895517     -1.53396027
