48
Cc1ccc(N(C)N=CC2=[N+](C)c3ccccc3C2(C)C)cc1.[Cl-]
C       5.94467939      0.64173119     -1.73760921
C       4.80268788      0.03062672     -0.97982316
C       4.94051301     -0.29155085      0.37428654
C       3.89017822     -0.89807518      1.06873940
C       2.68411873     -1.20390161      0.42208027
N       1.62131663     -1.80633977      1.17089639
C       1.90826880     -3.24543027      1.32189078
N       0.34625059     -1.54831303      0.73090290
C      -0.05968536     -0.37334965      1.07672157
C      -1.40704116      0.05748036      0.63319298
N      -2.49844264     -0.63326137      0.73235578
C      -2.73758161     -1.95642772      1.31412469
C      -3.59715749      0.12394241      0.11698209
C      -4.92371820     -0.23677204     -0.02629313
C      -5.76964752      0.67571871     -0.66164180
C      -5.27712645      1.90548018     -1.13314100
C      -3.93082553      2.24746569     -0.98075722
C      -3.09793531      1.33939480     -0.34988651
C      -1.62391349      1.41324083     -0.04779105
C      -0.78970782      1.51158742     -1.32657653
C      -1.31034856      2.56230009      0.91245037
C       2.55754009     -0.89138573     -0.93942734
C       3.60843740     -0.28683298     -1.63528428
Cl      0.00000000      0.00000000      0.00000000
H       6.57953820      1.23929346     -1.07509804
H       5.57640842      1.30955111     -2.52345605
H       6.55258144     -0.14446109     -2.19568555
H       5.86912021     -0.07378975      0.89840365
H       4.01741806     -1.12609286      2.12382017
H       1.93633784     -3.75189964      0.34908605
H       1.12261819     -3.71425466      1.92550760
H       2.85697557     -3.41524469      1.84384757
H       0.52008963      0.35705432      1.66621858
H      -3.59576144     -1.89790963      1.98977857
H      -1.86634516     -2.27868127      1.88854438
H      -2.93499834     -2.66359150      0.50455470
H      -5.32221981     -1.18267016      0.32421129
H      -6.82396383      0.43686791     -0.80044960
H      -5.95678691      2.59971144     -1.62833923
H      -3.56320353      3.19967903     -1.35660005
H      -0.97610167      0.66193450     -1.99454883
H      -1.01691769      2.42714580     -1.88351628
H       0.28263835      1.51723872     -1.10094753
H      -1.58330521      3.53184078      0.48032454
H      -0.24297282      2.59758291      1.15671418
H      -1.85592334      2.45598817      1.85729725
H       1.65036507     -1.14737999     -1.47991560
H       3.49354921     -0.07524109     -2.69602096
