14
N#Cc1c(Cl)c(Cl)c(Cl)c(C#N)c1Cl
N       3.61673977     -1.39406722      0.18985109
C       2.56394817     -0.91121802      0.13026129
C       1.25779611     -0.31588154      0.05653867
C       1.11983974      1.08073467     -0.02614845
Cl      2.54307077      2.08446711     -0.03861524
C      -0.15995751      1.66321910     -0.09833727
Cl     -0.32629666      3.39279384     -0.20060037
C      -1.30493844      0.84389955     -0.08764379
Cl     -2.89294811      1.55351515     -0.17647971
C      -1.17419231     -0.55342087     -0.00513962
C      -2.34258849     -1.39045359      0.00582523
N      -3.28377485     -2.06806061      0.01484511
C       0.10842978     -1.12744013      0.06666021
Cl      0.27487203     -2.85808745      0.16898286
