24
NCCCCCCN
N       3.71945157     -0.18508311     -0.69030762
C       3.24236614     -0.35502410      0.67656833
C       1.80682155     -0.88187521      0.72995264
C       0.77269715      0.10652053      0.18251736
C      -0.65009322     -0.43326465      0.34664881
C      -1.68648742      0.55548123     -0.19191592
C      -3.10462549      0.00983202     -0.03380360
N      -4.07544787      0.96572057     -0.55340036
H       3.17373502      0.53435558     -1.16219870
H       4.67931294      0.15741682     -0.67217397
H       3.31588381      0.59762392      1.21266843
H       3.89962854     -1.06747746      1.18688196
H       1.56545565     -1.10896742      1.77598048
H       1.73954436     -1.82942438      0.18050550
H       0.86512639      1.06337434      0.71039852
H       0.96145969      0.30129408     -0.87931160
H      -0.74309595     -1.38888376     -0.18362250
H      -0.84871861     -0.63077041      1.40710178
H      -1.48305276      0.75800847     -1.25109975
H      -1.59230150      1.50914511      0.34282384
H      -3.31966124     -0.18808067      1.02203754
H      -3.20747461     -0.93495169     -0.57820871
H      -5.01720542      0.60723059     -0.40083925
H      -4.01331873      1.83779963     -0.02971128
