15
CC/C=C\C(=O)O
C      -2.05945862     -0.08712475      0.56583586
C      -0.97947555     -0.85406464     -0.17988192
C      -0.16460988      0.05501638     -1.05468183
C       1.06732529      0.53907807     -0.82812289
C       1.87286679      0.31030627      0.38327245
O       1.55463968     -0.24964513      1.41249812
O       3.09626066      0.84102151      0.21597330
H      -2.66270636     -0.77360439      1.16853386
H      -1.62196516      0.65825145      1.23857910
H      -2.73015022      0.43097319     -0.12803019
H      -0.36080301     -1.40921147      0.53010476
H      -1.45039602     -1.61152919     -0.81813708
H      -0.64363420      0.33402684     -1.99253568
H       1.53365374      1.17372593     -1.57565972
H       3.54845286      0.64277991      1.06225185
