24
C/C=C/C.C=CCC
C      -1.94177047     -0.04839225     -0.01735585
C      -0.54921542      0.29906959      0.39803102
C       0.54921563     -0.29907028     -0.08739738
C       1.94177058      0.04839224      0.32798899
C       1.92956629     -0.10597620     -0.69724854
C       0.84304673     -0.40822414      0.02440297
C      -0.32910627      0.51121836      0.20550805
C      -1.60455628     -0.09701235     -0.35655365
H      -2.43346520      0.83109884     -0.44411180
H      -1.96390418     -0.84814126     -0.76434070
H      -2.51863206     -0.37744598      0.85232422
H      -0.45256620      1.08852941      1.14031767
H       0.45256596     -1.08853019     -0.82968402
H       1.96390393      0.84814344      1.07497138
H       2.43346550     -0.83109753      0.75474714
H       2.51863193      0.37744397     -0.54169187
H       2.74977939     -0.81155329     -0.78781519
H       2.02717152      0.84465257     -1.21224065
H       0.79490083     -1.37288462      0.52592665
H      -0.46008278      0.70779231      1.27570582
H      -0.14736607      1.47844387     -0.27749946
H      -1.51288871     -0.28462078     -1.43175433
H      -1.84272454     -1.04581240      0.13617243
H      -2.44774011      0.58397668     -0.20254705
