43
N=C1C=CC2=CC(S(=O)(=O)[O-])=CC(=O)C2=C1NNc1ccc(N)cc1S(=O)(=O)[O-].[Na+].[Na+]
N       0.38643874     -1.99852875      2.19800873
C       1.31480217     -1.44275502      1.47995859
C       2.68932722     -1.46091456      2.04051060
C       3.70650114     -0.89242131      1.38954824
C       3.48174075     -0.24398870      0.11698128
C       4.50924915      0.34707780     -0.51649986
C       4.35003837      1.01166209     -1.79287110
S       5.75717904      1.76480623     -2.59192310
O       5.20301779      2.89761419     -3.33226497
O       6.28072042      0.68927197     -3.43059508
O       6.63501442      2.14692501     -1.48523424
C       3.17571548      1.05211191     -2.43635007
C       1.97674480      0.43887255     -1.82634303
O       0.89852889      0.49882705     -2.41409547
C       2.14768009     -0.22964688     -0.48820872
C       1.07501978     -0.78891996      0.12513141
N      -0.22396768     -0.80524190     -0.38084728
N      -1.39187521     -1.28500280      0.15628494
C      -2.44603642     -0.40216206      0.52741124
C      -2.14191986      0.90067882      0.95957151
C      -3.14247663      1.78828631      1.37810960
C      -4.48332676      1.40873209      1.36064265
N      -5.47098825      2.26833226      1.86779037
C      -4.79486175      0.09325202      1.02797785
C      -3.79146331     -0.79775400      0.60092955
S      -4.35896341     -2.43116642      0.06480987
O      -3.20618565     -2.97726614     -0.65279061
O      -4.67897151     -3.08313836      1.33072339
O      -5.50666661     -2.10898248     -0.78059448
Na      0.00000000      0.00000000      0.00000000
Na      0.00000000      0.00000000      0.00000000
H      -0.49389739     -1.89222569      1.64990420
H       2.81468735     -1.95889273      2.99425788
H       4.70569771     -0.91378615      1.81225263
H       5.51595473      0.35318216     -0.10297191
H       3.05396284      1.52797844     -3.40202798
H      -0.30768073     -0.37409536     -1.31397906
H      -1.80490486     -2.10244924     -0.35151262
H      -1.10729496      1.23118119      0.98580608
H      -2.85448255      2.77797074      1.71838095
H      -6.39800448      2.01324080      1.54019264
H      -5.25364517      3.24484605      1.70565535
H      -5.82040766     -0.26551118      1.07249530
