28
CC1=Nc2ccc(C(=O)O)cc2C1(C)C
C      -3.51851662     -0.12872083      0.91056861
C      -2.02438068     -0.15851271      0.88221348
N      -1.30631486     -0.47642538      1.92458424
C       0.03101313     -0.39199381      1.51278521
C       1.14269687     -0.64480057      2.29393060
C       2.41004152     -0.51050615      1.71487572
C       2.54661490     -0.12567567      0.36426268
C       3.87696265      0.02432259     -0.27496883
O       4.07814868      0.35132307     -1.43006451
O       4.89394376     -0.24239063      0.56282028
C       1.40982890      0.12808979     -0.41799865
C       0.16365008     -0.01045634      0.17397168
C      -1.21902547      0.18640271     -0.38863799
C      -1.51784875     -0.79980704     -1.51468686
C      -1.45608188      1.63263844     -0.81536610
H      -3.88297084     -0.40500299      1.90370977
H      -3.87222867      0.87671803      0.67087476
H      -3.91571819     -0.83570787      0.17853518
H       1.02805990     -0.94014478      3.33134919
H       3.28933824     -0.70792862      2.32390489
H       5.69421767     -0.10489988      0.01392978
H       1.50489412      0.42488025     -1.45871369
H      -1.41034003     -1.83847428     -1.17976242
H      -0.84126739     -0.65407616     -2.36436516
H      -2.54347042     -0.68240684     -1.88174476
H      -0.77568287      1.92859522     -1.62185213
H      -1.30452585      2.32875844      0.01830653
H      -2.48103789      1.77620200     -1.17490677
