24
C=C[C@@H](COC(C)=O)OC(C)=O
C      -1.71278797     -2.95831685      0.73420853
C      -0.57081722     -2.29643684      0.96971231
C      -0.19794443     -0.91270833      0.48030324
C       1.00888318     -0.99492979     -0.47655943
O       1.55943888      0.30453155     -0.76213277
C       2.33439770      0.82727628      0.22846500
C       2.79939051      2.19981028     -0.14845972
O       2.62625545      0.25505486      1.26959630
O      -1.32047064     -0.33944982     -0.22311864
C      -1.44340997      1.01262377     -0.16285444
C      -2.64455896      1.44640153     -0.94643051
O      -0.69993942      1.77862847      0.43308313
H      -2.51015009     -2.53603387      0.13067282
H      -1.87504842     -3.94869849      1.14911170
H       0.18108282     -2.77998955      1.59275322
H       0.03340951     -0.30712207      1.36433493
H       1.79918124     -1.65089039     -0.08997762
H       0.69235542     -1.40684781     -1.44205382
H       3.35387111      2.63623698      0.68720689
H       3.45969733      2.14074721     -1.01705687
H       1.93936079      2.83937835     -0.36215024
H      -2.74020715      2.53456967     -0.89076131
H      -2.52615176      1.16042673     -1.99457037
H      -3.54583790      0.99573812     -0.52332233
