40
COc1ccc2cc(C(C)C(=O)OC(C)C)ccc2c1
C       6.24512403      1.44306236     -0.96778844
O       5.32011848      0.52316479     -1.53356093
C       4.13882325      0.34499194     -0.86689607
C       3.75926793      0.98172086      0.31230672
C       2.51537427      0.70510541      0.89045739
C       1.63221896     -0.21150324      0.29964180
C       0.38009830     -0.49784878      0.87011404
C      -0.50207596     -1.41456032      0.27335008
C      -1.85700091     -1.71851185      0.88861564
C      -1.71373420     -2.43020551      2.23584644
C      -2.70828570     -0.46261574      1.02608098
O      -2.89359984      0.15068096      2.06962503
O      -3.21968587     -0.11051389     -0.18974591
C      -3.98893179      1.10510797     -0.22788534
C      -4.91411853      1.01326418     -1.43507303
C      -3.04826644      2.29789451     -0.35874901
C      -0.11139949     -2.04892954     -0.91160778
C       1.13104099     -1.77381278     -1.48816545
C       2.01249026     -0.85802390     -0.89459981
C       3.26472360     -0.56938036     -1.46229101
H       6.56944604      1.11628598      0.02574801
H       7.12792822      1.46928756     -1.61386537
H       5.82644190      2.45435936     -0.93519610
H       4.40334759      1.69842953      0.81017327
H       2.24034457      1.21490661      1.81151486
H       0.08826002      0.00503179      1.79181842
H      -2.41581745     -2.40221643      0.23468270
H      -1.19902128     -1.80869552      2.97722492
H      -2.69841661     -2.67877301      2.64725338
H      -1.14622069     -3.36123773      2.12883985
H      -4.60434373      1.19885919      0.67504105
H      -5.57159624      0.14173292     -1.34476271
H      -4.34244946      0.88077071     -2.36041287
H      -5.53461538      1.90950369     -1.53037232
H      -2.38402251      2.36883553      0.50870430
H      -3.60653914      3.23539737     -0.44172408
H      -2.40346304      2.19299662     -1.23838506
H      -0.77035319     -2.76281768     -1.40132237
H       1.40706371     -2.28143356     -2.41000964
H       3.57184532     -1.06031001     -2.38332013
