21
NS(=O)(=O)c1cc2c(s1)SCCC2=O
N       3.92990453      1.15800031      0.53167415
S       3.29748304     -0.21686689      1.26711726
O       3.42890147      0.00197664      2.68732013
O       3.88447122     -1.33821233      0.57408386
C       1.56734966     -0.24961799      0.91418564
C       0.74481516      0.59574097      0.19702186
C      -0.62170876      0.16078922      0.18574562
C      -0.76849738     -1.01837992      0.88752875
S       0.69638519     -1.56467948      1.56802254
S      -2.27066687     -1.90375866      1.09231683
C      -3.20703970     -1.18218698     -0.28907597
C      -3.14023751      0.33443850     -0.26502324
C      -1.72982969      0.84987049     -0.47319693
O      -1.53255195      1.86660789     -1.13767794
H       4.63400777      0.86867369     -0.15000162
H       4.32535463      1.76199236      1.25487484
H       1.10307670      1.49401480     -0.29481020
H      -4.24676906     -1.51397524     -0.20769192
H      -2.80345210     -1.57534190     -1.22885564
H      -3.76416511      0.72828683     -1.07604076
H      -3.52683123      0.74262768      0.67605148
