58
COc1cccc(-c2cccc(C3(C4CCN(C(C)=O)CC4)N=C(C)C(N)=N3)c2)c1
C       7.16020857     -0.46865582      2.14019684
O       6.88939501      0.92664744      2.04111561
C       5.73565103      1.28745881      1.39995113
C       5.48729065      2.66109052      1.37435017
C       4.34159284      3.16298284      0.76015819
C       3.43215293      2.28903823      0.16568323
C       3.66184379      0.90459823      0.17116432
C       2.70616740     -0.01748083     -0.45681357
C       3.07973480     -0.80291967     -1.55652987
C       2.16805059     -1.67324697     -2.15434444
C       0.86950066     -1.77883956     -1.65493532
C       0.45908362     -1.01747889     -0.55036563
C      -0.96715214     -1.11514045      0.01620159
C      -1.80628304      0.14834332     -0.36727093
C      -1.98032691      0.31822768     -1.89064502
C      -2.78011080      1.57449711     -2.22729375
N      -4.05483211      1.63080806     -1.51769438
C      -5.10808889      2.29141684     -2.14111517
C      -6.38051687      2.46244372     -1.35070570
O      -5.04182402      2.71839224     -3.29461055
C      -3.98353341      1.41877757     -0.07331680
C      -3.20675353      0.15489171      0.28179312
N      -0.88467714     -1.18059663      1.51105648
C      -1.37815600     -2.34073637      1.78627270
C      -1.50473093     -2.93263601      3.14045910
C      -1.85967038     -3.05540764      0.57386489
N      -2.43697820     -4.28809738      0.57539554
N      -1.66928596     -2.33837272     -0.47986184
C       1.39309285     -0.13497877      0.03018406
C       4.82604100      0.41694045      0.79400367
H       7.31165896     -0.91304840      1.14865357
H       6.36797621     -0.98790114      2.69206045
H       8.08936626     -0.59320074      2.70462701
H       6.19280531      3.34466309      1.83954135
H       4.15840421      4.23307972      0.74368671
H       2.54283257      2.69409812     -0.31403362
H       4.08529404     -0.72759900     -1.96420469
H       2.46723901     -2.26504178     -3.01482886
H       0.17302835     -2.45544993     -2.14405167
H      -1.27550144      1.03637421      0.00849800
H      -2.49867665     -0.55479671     -2.30753670
H      -1.00829146      0.38640329     -2.38976626
H      -2.21270053      2.47246636     -1.94774920
H      -2.94035021      1.61823699     -3.31085577
H      -6.74851289      1.49130814     -1.00895638
H      -6.21331860      3.13486451     -0.50368422
H      -7.14891842      2.90698833     -1.99324864
H      -4.98180944      1.35209956      0.36628109
H      -3.49890312      2.30209979      0.36155560
H      -3.78016808     -0.71781388     -0.05717178
H      -3.13051535      0.09089883      1.37365006
H      -1.14144049     -2.22943382      3.89374316
H      -2.55269202     -3.16265750      3.34658950
H      -0.91281326     -3.84927887      3.19521588
H      -2.10955342     -4.94599498      1.27335225
H      -2.48189458     -4.69323781     -0.35557609
H       1.08970309      0.46661391      0.88787793
H       4.99086650     -0.65670730      0.79841509
