30
CC(=O)OC(C)(C)Cc1ccccc1
C      -4.42261561      0.60377150      0.64426322
C      -3.06266332     -0.02297371      0.70168206
O      -2.72266456     -0.84434045      1.53926395
O      -2.29237202      0.46447075     -0.30558766
C      -0.91374510      0.01016188     -0.48352644
C      -0.45664160      0.74693318     -1.75499385
C      -0.88878794     -1.49895780     -0.76584160
C      -0.05820539      0.43124269      0.74128009
C       1.43067309      0.19381025      0.63715160
C       1.98076621     -1.04191685      1.00452614
C       3.35499098     -1.26431639      0.90472387
C       4.19389720     -0.25317002      0.44114356
C       3.65989266      0.98215396      0.08043850
C       2.28572133      1.20614081      0.17986383
H      -4.90129912      0.36424754     -0.30859417
H      -5.04030534      0.20477888      1.45398813
H      -4.33771664      1.68586229      0.77181236
H      -1.14794760      0.55277790     -2.58403642
H       0.54478916      0.44434392     -2.07588248
H      -0.46249340      1.83202545     -1.59956481
H       0.08310799     -1.82456360     -1.15062700
H      -1.09925365     -2.08475736      0.13408813
H      -1.65430480     -1.76823387     -1.50261000
H      -0.23584389      1.49577937      0.95051110
H      -0.41329801     -0.07330705      1.64804714
H       1.34058932     -1.83979907      1.37580322
H       3.77067944     -2.22649183      1.19225458
H       5.26397310     -0.42657379      0.36524614
H       4.31430649      1.77304093     -0.27651695
H       1.88677103      2.17786050     -0.10242372
