18
CC1(C#N)CCCC1=O
C      -1.78612501     -0.51314778     -1.06390141
C      -0.73862970     -0.07095474     -0.05011055
C      -1.34081365      0.15010553      1.27281141
N      -1.79490466      0.29110678      2.33154753
C       0.43664041     -1.06059174      0.02856460
C       1.63397122     -0.21201572      0.44792241
C       1.47660878      1.08083449     -0.34031578
C      -0.02174191      1.18975756     -0.49123819
O      -0.57592560      2.18503609     -0.94349385
H      -2.60826503      0.20965114     -1.12955831
H      -2.21912717     -1.48223167     -0.79065611
H      -1.35690739     -0.60425135     -2.06832956
H       0.26198715     -1.88194145      0.73230100
H       0.64125024     -1.50278559     -0.95535271
H       1.59562621     -0.00639359      1.52451516
H       2.58625899     -0.70751364      0.23668790
H       1.88399241      1.93853092      0.19907820
H       1.92610473      0.99680477     -1.33392937
