41
CCOC(=O)C(C)Oc1cccc(Oc2nc3ccc(Cl)cc3s2)c1
C      -6.99091439      1.56131454     -0.50346710
C      -6.11803980      0.34094465     -0.72146888
O      -5.05102386      0.37851688      0.23408219
C      -4.18325475     -0.67546600      0.14688354
O      -4.28144703     -1.58487381     -0.66691781
C      -3.08181239     -0.52871254      1.20359662
C      -3.68231423     -0.73213886      2.59061927
O      -2.05000288     -1.51302967      1.05384286
C      -1.03228879     -1.06004835      0.25991585
C      -0.95521120     -1.50940734     -1.05580197
C       0.08735699     -1.07411052     -1.87315938
C       1.06012166     -0.21046833     -1.36431942
C       1.00265044      0.19678662     -0.02840265
O       1.90298863      1.07203311      0.52848091
C       3.22048043      0.93758686      0.35113211
N       3.79399888     -0.11531846     -0.18672702
C       5.16597892      0.04982849     -0.20196497
C       6.10280929     -0.87433388     -0.70815688
C       7.46914965     -0.57591294     -0.66039585
C       7.90283364      0.62806242     -0.11512893
Cl      9.58888141      0.97615158     -0.06592586
C       6.99885993      1.56317424      0.39514665
C       5.63029916      1.24991463      0.34042125
S       4.28187568      2.17403726      0.88017446
C      -0.05189306     -0.21993390      0.78488591
H      -7.82314134      1.57764403     -1.21269563
H      -6.40632587      2.47957544     -0.62258725
H      -7.39357136      1.57023827      0.51479556
H      -6.71156066     -0.56876140     -0.57744431
H      -5.70590927      0.35751001     -1.73657924
H      -2.67569860      0.48968667      1.13372381
H      -2.90593512     -0.65602624      3.35953838
H      -4.12511005     -1.73071356      2.68121154
H      -4.46110201      0.00553685      2.80773378
H      -1.70786750     -2.19070858     -1.44536481
H       0.14444255     -1.41044139     -2.90509860
H       1.86255474      0.12851345     -2.01380998
H       5.75475195     -1.81239985     -1.13047682
H       8.18580349     -1.29381240     -1.05217418
H       7.33930947      2.50153866      0.82148869
H      -0.10072278      0.09802336      1.82144505
