30
CCC1(CC)OC(=O)c2cc([N+](=O)[O-])ccc21
C      -1.39956063      2.38717934     -0.15779898
C      -1.86800160      1.07373858      0.46552066
C      -1.11540394     -0.18030026     -0.02453184
C      -1.66627076     -1.48459165      0.59299428
C      -3.12382547     -1.77861536      0.25632981
O      -1.22541892     -0.27290759     -1.46906306
C      -0.01112351     -0.28830715     -2.09234377
O       0.19632872     -0.37571847     -3.28471510
C       0.99547773     -0.17018933     -1.04741971
C       2.37164512     -0.12387016     -1.19184208
C       3.12673041      0.00090204     -0.01994180
N       4.59198324      0.05616821     -0.10495156
O       5.10594312     -0.01219455     -1.22945319
O       5.22504211      0.16779204      0.95413195
C       2.50096422      0.07520172      1.24486015
C       1.10559209      0.02458181      1.34653286
C       0.36331138     -0.09865329      0.18076836
H      -1.49396652      2.36825887     -1.24781228
H      -2.01316747      3.21416945      0.21464472
H      -0.35920137      2.60816104      0.09812404
H      -1.79355445      1.15504045      1.55687381
H      -2.93211645      0.97993337      0.21996020
H      -1.07598202     -2.33679507      0.22895083
H      -1.55034939     -1.46622626      1.68397193
H      -3.79640231     -1.04252640      0.70545475
H      -3.40520094     -2.76106989      0.64974947
H      -3.29118378     -1.79111019     -0.82484073
H       2.82197456     -0.18198701     -2.17905042
H       3.09154820      0.17240167      2.15539794
H       0.62418865      0.08153403      2.31949876
