32
CCCC(=O)OCCOC(=O)CCC
C       6.21106050      0.72021144      0.19810806
C       4.94887197     -0.00564134     -0.23787555
C       3.69477410      0.78744664      0.12041857
C       2.43442770      0.07447583     -0.30975934
O       2.38526597     -1.01085213     -0.86928553
O       1.35027009      0.82705078      0.03079092
C       0.07576251      0.28227268     -0.34543252
C      -0.40363259     -0.75911911      0.66322905
O      -1.67794748     -1.30424646      0.28683330
C      -2.76170937     -0.54773236      0.61906657
O      -2.71220826      0.53446529      1.18471585
C      -4.02493676     -1.26597658      0.20260118
C      -5.25338687     -0.35849869      0.18956006
C      -5.23221721      0.63847005     -0.96088062
H       6.21983537      0.87547303      1.28168884
H       6.29039729      1.69683227     -0.28999720
H       7.09642965      0.13448020     -0.06824757
H       4.91610439     -0.99281803      0.23858515
H       4.98592934     -0.17817715     -1.32021417
H       3.64895867      0.93769198      1.20486951
H       3.72071690      1.76444679     -0.37506310
H      -0.62871030      1.11942307     -0.39172744
H       0.10702815     -0.13257384     -1.36080736
H       0.30107144     -1.59604868      0.70957551
H      -0.43536552     -0.34434849      1.67860445
H      -4.18528376     -2.08030050      0.91804643
H      -3.87808496     -1.70153098     -0.79224890
H      -6.14997813     -0.98185935      0.09150654
H      -5.34188794      0.18291429      1.13850752
H      -6.14500485      1.24263071     -0.95195871
H      -4.37845501      1.31871971     -0.88738157
H      -5.17809504      0.12271891     -1.92498741
