36
CCCCCCCCCC(C)O
C       5.78812029      0.52097268     -1.29821473
C       4.57943486      0.80323751     -0.42020097
C       3.39958391     -0.09730635     -0.78512757
C       2.18589069      0.18981819      0.10031863
C       1.00502693     -0.71124064     -0.26495556
C      -0.20920807     -0.42389949      0.62104197
C      -1.39010458     -1.32355719      0.25064402
C      -2.59919476     -1.15075666      1.17451426
C      -3.20802805      0.25349245      1.21440800
C      -3.64827881      0.82747764     -0.13572959
C      -4.72234117     -0.00548389     -0.82230458
O      -4.17170394      2.13463753      0.10566438
H       6.61981999      1.17584264     -1.02012839
H       5.55592020      0.69620983     -2.35353986
H       6.12036564     -0.51610560     -1.18678141
H       4.85422051      0.64996273      0.62989626
H       4.29289159      1.85559067     -0.53043414
H       3.13145637      0.05685991     -1.83746422
H       3.69275766     -1.14871776     -0.67718581
H       1.89292265      1.24124157     -0.00781350
H       2.45399349      0.03536884      1.15258423
H       1.29849636     -1.76252355     -0.15706484
H       0.73636208     -0.55649355     -1.31705651
H      -0.49034904      0.62952344      0.51180548
H       0.05792444     -0.58247497      1.67276925
H      -1.68275355     -1.14425152     -0.79020387
H      -1.07104462     -2.37218924      0.30346635
H      -3.37021036     -1.87237024      0.87937536
H      -2.30603631     -1.42693668      2.19536681
H      -4.07030027      0.23993562      1.89487049
H      -2.50042407      0.94974430      1.68246357
H      -2.78510277      0.94394777     -0.79904114
H      -5.60093008     -0.11820803     -0.17770466
H      -5.06645660      0.49185189     -1.73580072
H      -4.35521318     -0.99893982     -1.09398708
H      -4.41750744      2.51573999     -0.75456459
