30
COC(=O)C1(O)c2ccccc2-c2ccc(Cl)cc21
C      -2.69056806     -1.22644058      2.18734533
O      -1.63989396     -0.76618292      1.33793024
C      -1.78491653     -1.11089018      0.02817493
O      -2.72547769     -1.76211961     -0.42464945
C      -0.63600864     -0.59588489     -0.86404595
O      -0.75889723     -1.01709287     -2.21979626
C      -0.51947087      0.92546902     -0.83584436
C      -1.45765818      1.87154973     -1.22568804
C      -1.12497326      3.22059229     -1.09257339
C       0.12608471      3.60479467     -0.58188119
C       1.07081802      2.64707691     -0.19904984
C       0.74346180      1.30758798     -0.33023572
C       1.51400994      0.11673448     -0.03720435
C       2.80127292     -0.02418157      0.45609907
C       3.31252191     -1.31597258      0.62599894
C       2.53859074     -2.44112503      0.29826033
Cl      3.20183155     -4.01540375      0.51646387
C       1.24221332     -2.30650749     -0.19859239
C       0.73862671     -1.02177872     -0.35537434
H      -2.47239266     -0.89517884      3.20631184
H      -2.73711633     -2.31988150      2.18081750
H      -3.64828700     -0.79492487      1.88012295
H      -1.61541574     -1.48161948     -2.27674201
H      -2.42122650      1.57738105     -1.62970212
H      -1.83908877      3.98465983     -1.39193025
H       0.36500391      4.66208227     -0.49034422
H       2.03674404      2.95776349      0.18469972
H       3.40932214      0.84014151      0.70233477
H       4.32179297     -1.44422278      1.01004047
H       0.64909672     -3.17642558     -0.46094607
