14
CNCCO
C       1.91367500      0.24620567      0.41663949
N       0.46864214      0.21234196      0.61032366
C      -0.20232274     -0.33324774     -0.58278777
C      -1.72084722     -0.30062022     -0.37256089
O      -2.13069180      1.02141044     -0.02859086
H       2.31856362     -0.75588886      0.24183631
H       2.18514951      0.89479699     -0.42247199
H       2.39152937      0.65127497      1.31397752
H       0.25741114     -0.38215189      1.41367505
H       0.12248261     -1.35975229     -0.78457233
H       0.04455610      0.29273835     -1.44833975
H      -2.01990184     -0.97250457      0.43862303
H      -2.24565928     -0.60044845     -1.28422768
H      -1.38258662      1.38584563      0.48847621
