19
Cc1ccc(S(=O)(=O)[O-])cc1.[Na+]
C      -2.96146497     -0.01090628     -0.04738766
C      -1.46233676      0.00732533     -0.05190345
C      -0.74249106     -1.10268757     -0.51959930
C       0.65350103     -1.10166176     -0.49487858
C       1.33147445      0.01315956      0.00279189
S       3.14296645      0.00335736      0.06871747
O       3.43478838      0.83589198      1.23348777
O       3.45912107     -1.41399961      0.23030060
O       3.49200952      0.58373396     -1.22445186
C       0.62951138      1.11595076      0.49396346
C      -0.76642568      1.10983241      0.46697209
Na      0.00000000      0.00000000      0.00000000
H      -3.34748576     -0.60933036     -0.87931623
H      -3.32780669     -0.43416989      0.89291046
H      -3.36490514      1.00076551     -0.16133711
H      -1.26108207     -1.97649613     -0.90453147
H       1.21842553     -1.95744349     -0.85537281
H       1.17598133      1.96606383      0.89413411
H      -1.30378101      1.97061438      0.85550064
