44
CCCNC(=O)c1nnc2c(-c3ccccc3C)cccc2c1N
C       6.64979682     -1.00018262     -2.05332636
C       5.22522743     -0.58671160     -1.72353896
C       4.64015093     -1.44197626     -0.60381100
N       3.27489968     -1.06796550     -0.30951635
C       2.95201504     -0.01834865      0.53071132
O       3.79124335      0.64155974      1.13822171
C       1.48730744      0.28671810      0.63527966
N       0.70735714     -0.39133815     -0.23462056
N      -0.63980802     -0.16030908     -0.24733022
C      -1.22076129      0.70617632      0.60617264
C      -2.61708973      0.89490527      0.59400190
C      -3.48157950      0.17400869     -0.36129598
C      -3.81114922      0.79147564     -1.58239058
C      -4.63424094      0.15649855     -2.51270603
C      -5.14266138     -1.10797834     -2.23773809
C      -4.82875124     -1.73819021     -1.03398112
C      -4.00367718     -1.11014128     -0.08564666
C      -3.68147067     -1.83317078      1.19511666
C      -3.22261804      1.78343871      1.50086368
C      -2.45867892      2.47559618      2.42704835
C      -1.07913923      2.29565491      2.44449567
C      -0.43074158      1.42685754      1.53423029
C       0.97812089      1.24407693      1.52061431
N       1.79688845      1.87826869      2.49391797
H       6.68948188     -2.04396852     -2.38083529
H       7.30232673     -0.88811633     -1.18155003
H       7.04897087     -0.37603576     -2.85892829
H       5.21256959      0.47125394     -1.43588457
H       4.60331983     -0.67551527     -2.62244285
H       5.24026381     -1.34097784      0.30732187
H       4.62879965     -2.49846381     -0.89138899
H       2.51516949     -1.49384335     -0.83423838
H      -3.41624713      1.77822567     -1.81654365
H      -4.87255602      0.64779896     -3.45210549
H      -5.78008926     -1.60789883     -2.96222543
H      -5.23088347     -2.73033513     -0.84017460
H      -3.97136806     -1.22979240      2.06112520
H      -4.22359097     -2.78228692      1.26636531
H      -2.61194547     -2.05963356      1.24641793
H      -4.30258808      1.92171379      1.48676232
H      -2.93337507      3.14880431      3.13644586
H      -0.50922396      2.83815501      3.19537312
H       2.79824420      1.77179216      2.27810834
H       1.56208122      2.85020113      2.66362538
