21
CC(=O)Nc1ccc(C=O)cc1
C      -3.95979786      0.25895256     -0.00366776
C      -2.53388395      0.72916546     -0.15096587
O      -2.28514271      1.85826957     -0.55779379
N      -1.62069013     -0.25224007      0.19073356
C      -0.21390224     -0.16107355      0.16843882
C       0.48886873      0.98746648     -0.20669702
C       1.88908548      1.00079801     -0.20253687
C       2.59234953     -0.14152698      0.17970357
C       4.06834264     -0.12059343      0.18181061
O       4.73156297     -1.09667456      0.50962846
C       1.90400761     -1.29484428      0.55733129
C       0.50601762     -1.30165924      0.55095133
H      -4.25606963     -0.28585385     -0.90381385
H      -4.61538873      1.12430421      0.13003484
H      -4.07047565     -0.38772920      0.87154716
H      -2.00159736     -1.14334636      0.48373464
H      -0.02413486      1.89563964     -0.50930427
H       2.40866657      1.90829469     -0.49946848
H       4.54890833      0.82255159     -0.12799319
H       2.45023983     -2.18732464      0.85616767
H      -0.00696617     -2.21257604      0.84936740
