50
CC[C@]12CC[C@@H]3C4=C(CC[C@H]3[C@@H]1CCC2=O)CC(OC)=CC4
C      -3.78365232     -0.84630189      2.24565017
C      -2.86229039      0.18454785      1.59757149
C      -2.84272780      0.15355494      0.04127262
C      -2.48055510     -1.21758868     -0.53026994
C      -1.00712333     -1.56519359     -0.24097690
C      -0.01765393     -0.47938044     -0.74191782
C       1.45659907     -0.76568489     -0.46538229
C       2.34106223      0.23569639     -0.24513637
C       1.95492242      1.69795822     -0.26008491
C       0.54032740      1.97532953     -0.77164720
C      -0.43031880      0.93207658     -0.22083253
C      -1.88443065      1.18127186     -0.62029225
C      -2.53079116      2.53356418     -0.34710816
C      -4.01015088      2.26759182     -0.66006834
C      -4.14668789      0.76884140     -0.44431506
O      -5.18602603      0.14847585     -0.62573308
C       3.81420658     -0.01045456      0.02322748
C       4.23925325     -1.45312128     -0.09114034
O       5.58715441     -1.76639536     -0.01857089
C       6.27317253     -1.13922524      1.06021944
C       3.36654137     -2.43382687     -0.35349178
C       1.89482107     -2.21614341     -0.51945068
H      -4.80992514     -0.76074231      1.87839806
H      -3.80542510     -0.69214911      3.32981688
H      -3.43200361     -1.86703509      2.07158901
H      -3.18378058      1.16948399      1.95686834
H      -1.86006821      0.02630071      2.00701450
H      -2.64214926     -1.22527319     -1.61676208
H      -3.13462522     -2.00384592     -0.13916005
H      -0.79155600     -2.52229090     -0.73105055
H      -0.86787406     -1.72784866      0.83458454
H      -0.10952472     -0.47398702     -1.83944676
H       2.66104831      2.26432830     -0.87914683
H       2.04641863      2.08432751      0.76310983
H       0.24626600      2.98660278     -0.46922111
H       0.53228049      1.95583521     -1.86905623
H      -0.34184306      0.95807406      0.87228124
H      -1.93345373      1.05324813     -1.71606066
H      -2.39545403      2.84723971      0.69331655
H      -2.13220354      3.32706963     -0.98693533
H      -4.23740240      2.49566816     -1.70543113
H      -4.66983827      2.82141578      0.01128054
H       4.40514099      0.57682767     -0.69060914
H       4.03724290      0.35886392      1.03115856
H       7.25986374     -1.60364291      1.14729773
H       5.74228053     -1.28649204      2.00692784
H       6.41967627     -0.07316932      0.86045909
H       3.72849948     -3.45246117     -0.45971111
H       1.38604863     -2.78302901      0.26840089
H       1.59670891     -2.63891130     -1.48637906
