32
CCCCC(=O)OCSc1ncnc2[nH]cnc12
C       5.49867565      1.37053755      0.21873251
C       4.30111579      0.66453680     -0.39787124
C       4.02755257     -0.67516290      0.29028865
C       2.84480865     -1.41891561     -0.32946092
C       1.51005754     -0.78865232     -0.00286887
O       1.30804976      0.02675817      0.88525108
O       0.55603239     -1.29322297     -0.83034420
C      -0.75021656     -0.75554784     -0.59335800
S      -1.95631960     -1.56666384     -1.68977417
C      -3.45809637     -1.08752433     -0.89553769
N      -4.39257399     -2.04193795     -0.64914117
C      -5.54752983     -1.66412358     -0.06459657
N      -5.91701851     -0.42744224      0.32288718
C      -4.95808237      0.46723237      0.04669849
N      -4.99678206      1.80798512      0.29713947
C      -3.81613148      2.34202982     -0.14037078
N      -3.02484681      1.42457427     -0.65521052
C      -3.72721206      0.23993998     -0.54779741
H       6.40331302      0.76082826      0.12817349
H       5.32799138      1.57759963      1.28001589
H       5.67931499      2.32341230     -0.28854796
H       4.49174824      0.50164809     -1.46505536
H       3.42556875      1.31862376     -0.32216488
H       4.91940231     -1.30781113      0.20191709
H       3.85563653     -0.51475093      1.36151985
H       2.96479511     -1.46106856     -1.41791421
H       2.82157675     -2.44398670      0.05723134
H      -0.73075453      0.31720872     -0.80586717
H      -1.03356025     -0.93725186      0.44935435
H      -6.26880975     -2.45643844      0.11596688
H      -5.76570136      2.29961872      0.72745364
H      -3.59200392      3.39796763     -0.05731194
