19
CC#CCCCC
C       4.14209676     -0.13631775      0.16239928
C       2.75120972      0.23322950     -0.10060680
C       1.60896114      0.53597158     -0.31618198
C       0.21187690      0.90903304     -0.58139859
C      -0.75224667     -0.14346682     -0.03444332
C      -2.20691426      0.23886759     -0.30718557
C      -3.16892253     -0.80591255      0.23555272
H       4.65243436      0.64796300      0.72950849
H       4.68786739     -0.28844029     -0.77362799
H       4.19546958     -1.06333310      0.74115439
H       0.06334948      1.02392957     -1.66144605
H       0.00019086      1.88169705     -0.12218424
H      -0.59903126     -0.26132811      1.04608897
H      -0.53596128     -1.11793946     -0.49110505
H      -2.43028887      1.20756650      0.15479521
H      -2.36706904      0.34892558     -1.38604495
H      -2.99323947     -1.78071931     -0.23051717
H      -3.05679737     -0.91738539      1.31875905
H      -4.20298544     -0.51234062      0.02953801
