16
COc1ccccc1Cl
C       2.68408314     -0.15643587     -0.23704610
O       1.65085618      0.81659604     -0.30442737
C       0.36281555      0.39271209     -0.10396365
C      -0.00447303     -0.93141289      0.16229649
C      -1.34827877     -1.27157547      0.35370020
C      -2.33853914     -0.29485863      0.28145620
C      -1.98718302      1.02714849      0.01713291
C      -0.64489075      1.36925899     -0.17446073
Cl     -0.27350677      3.02783252     -0.49924190
H       2.56078444     -0.91786380     -1.01416662
H       2.73526998     -0.60984529      0.75828858
H       3.63530184      0.35292218     -0.41920429
H       0.73074207     -1.72674762      0.22812833
H      -1.62062495     -2.30428987      0.55997251
H      -3.38170024     -0.56205300      0.43058250
H      -2.76065652      1.78861213     -0.03904705
