21
Nc1cc(C(=O)O)cc(S(=O)(=O)O)c1
N       0.24691533      3.19450051     -0.50445788
C       0.07937182      1.81354625     -0.37542292
C      -1.20480815      1.26463352     -0.29876328
C      -1.39319362     -0.10354622     -0.04800900
C      -2.78112627     -0.62316390     -0.01542017
O      -3.79127488      0.02721145     -0.20683385
O      -2.83478464     -1.93942993      0.25099175
C      -0.28763453     -0.92892869      0.16967594
C       0.98894036     -0.36466493      0.15601502
S       2.39437131     -1.39721816      0.44215741
O       2.44386584     -1.69075400      1.85526568
O       3.52310166     -0.83525177     -0.26807820
O       2.05808195     -2.76812860     -0.33940317
C       1.17656535      0.99739830     -0.09931856
H      -0.51457936      3.67190272     -0.97840880
H       1.15742748      3.48398368     -0.84936701
H      -2.07391767      1.90609794     -0.43594151
H      -3.79396289     -2.14322996      0.25177128
H      -0.41482085     -1.99031243      0.37128182
H       2.84294929     -2.99603354     -0.88160407
H       2.17851245      1.42138777     -0.08061786
