13
Oc1cccc(Cl)c1Cl
O       2.49725254     -0.17031048     -0.30518374
C       1.12976274     -0.12421539     -0.24390103
C       0.46649662     -1.33554766     -0.06742355
C      -0.92521013     -1.35665874      0.00303184
C      -1.64665135     -0.16556645     -0.10342742
C      -0.97790407      1.05154915     -0.28085423
Cl     -1.93830178      2.48323448     -0.40425277
C       0.41936336      1.07731563     -0.35214153
Cl      1.30658669      2.54809824     -0.57040751
H       2.81506413      0.74410267     -0.42946652
H       1.03415866     -2.25910234      0.01472947
H      -1.44793743     -2.30047282      0.14082190
H      -2.73267998     -0.19242628     -0.04720586
