24
C=C(COC(C)=O)COC(C)=O
C      -1.16945586     -2.30565768     -1.40389440
C      -0.63468220     -1.25131775     -0.76191718
C       0.64445981     -1.36429667      0.02829283
O       1.62161141     -0.51493477     -0.58144631
C       2.81892166     -0.50687323      0.06248419
C       3.77417358      0.40535361     -0.64397865
O       3.08850156     -1.14428682      1.07040780
C      -1.28014480      0.11099953     -0.79141692
O      -1.65056652      0.45784480      0.54668198
C      -2.22014387      1.68740650      0.65633123
C      -2.57311372      1.96261591      2.08581565
O      -2.41929360      2.46368404     -0.26703832
H      -2.09209823     -2.21945998     -1.97070223
H      -0.69974936     -3.28484796     -1.38082057
H       1.01447677     -2.39703272      0.02770876
H       0.47030852     -1.05531468      1.06595201
H       3.37984574      1.42461615     -0.64673124
H       4.73300403      0.40400672     -0.11769204
H       3.93710767      0.05242478     -1.66537664
H      -2.17694407      0.10515035     -1.42321926
H      -0.57481273      0.84927234     -1.19141050
H      -3.03005905      2.95343887      2.16201354
H      -3.29199630      1.21948298      2.43982154
H      -1.66935044      1.94772566      2.70013473
