38
O=C1OC(c2ccc(O)cc2)(c2ccc(O)cc2)c2ccccc21
O      -1.48808660     -1.76206287      3.29980959
C      -1.19585214     -1.36118994      2.19144899
O      -0.28937266     -0.39204628      1.89076582
C      -0.13180973     -0.18148465      0.45159402
C       1.32838649     -0.58082440      0.17277738
C       2.36555200      0.10595520      0.84313424
C       3.70961295     -0.20770475      0.62468404
C       4.03511695     -1.21928523     -0.26782874
O       5.33082430     -1.56171802     -0.51492947
C       3.04111874     -1.91899893     -0.93728977
C       1.69601343     -1.60550161     -0.71788310
C      -0.43002834      1.29114185      0.11510547
C       0.01087832      1.85408295     -1.09984074
C      -0.27795678      3.18131658     -1.42433191
C      -1.01544759      3.96069446     -0.54449434
O      -1.27461106      5.25030033     -0.90136997
C      -1.47198512      3.43506021      0.65759086
C      -1.18291554      2.10624473      0.98327643
C      -1.19238636     -1.08997366     -0.09966542
C      -1.63855445     -1.28571089     -1.40223987
C      -2.66131582     -2.21302762     -1.63102246
C      -3.23464891     -2.92603190     -0.56627032
C      -2.79612419     -2.71251535      0.73987069
C      -1.78129499     -1.78983226      0.93406790
H       2.12249260      0.89852662      1.55083070
H       4.47653806      0.34421603      1.15866238
H       5.90706089     -1.01001242      0.03919651
H       3.31099727     -2.71374520     -1.62764872
H       0.95366646     -2.18852604     -1.25559544
H       0.59172525      1.26444243     -1.80688067
H       0.07311848      3.60478031     -2.36129008
H      -1.78714156      5.67104305     -0.19168241
H      -2.05158836      4.03590983      1.35155943
H      -1.55390736      1.71572769      1.92948136
H      -1.20834586     -0.73571921     -2.23467226
H      -3.02051137     -2.38138457     -2.64462752
H      -4.03125123     -3.64079184     -0.76126132
H      -3.23796615     -3.24135463      1.57880295
