27
O=[N+]([O-])c1cc([N+](=O)[O-])c(-c2ccccc2)cc1O
O      -4.74347707      1.78408431     -0.00722623
N      -4.35255624      0.62271005      0.16635195
O      -5.09532815     -0.34870295      0.37716341
C      -2.90976469      0.37111165      0.12137436
C      -2.04413126      1.44484813     -0.12317219
C      -0.66430399      1.19976960     -0.16293924
N       0.20143639      2.33752853     -0.39586035
O       0.32058688      2.71165294     -1.56935773
O       0.70598744      2.86999212      0.59977479
C      -0.11068514     -0.07783984      0.02628058
C       1.33071364     -0.35390850     -0.02745771
C       2.02433249     -0.33246075     -1.24784658
C       3.39518329     -0.59577799     -1.29438901
C       4.08995915     -0.88740187     -0.12302790
C       3.41592225     -0.91701353      1.09541829
C       2.04519267     -0.65340931      1.14303347
C      -1.00948398     -1.13120328      0.27247857
C      -2.39304436     -0.91703844      0.32071464
O      -3.13981398     -2.03647960      0.56755001
H      -2.42040955      2.45514380     -0.27766149
H       1.50352292     -0.10982590     -2.17767073
H       3.92078037     -0.57088013     -2.24584106
H       5.15754314     -1.08925566     -0.15954649
H       3.95805985     -1.14139916      2.01065202
H       1.53985238     -0.67548102      2.10677048
H      -0.63015269     -2.14283322      0.42285885
H      -4.09592176     -1.81592998      0.58157531
