41
CC1(C)SC2C(NC(=O)Cc3ccccc3)C(=O)N2C1C(=O)O
C      -3.64665275     -1.21428930     -0.83209918
C      -2.36304769     -1.12630743      0.00440212
C      -1.96182211     -2.51199111      0.51531885
S      -1.00607445     -0.49342238     -1.08708900
C      -1.51852182      1.24643884     -0.82086928
C      -0.46677035      2.25339001     -0.29540851
N       0.96679171      1.88302516     -0.40718698
C       1.60870603      1.91322607     -1.62510461
O       1.05282303      2.34936751     -2.63236996
C       3.05903369      1.45689586     -1.63657265
C       3.37038550      0.31152290     -0.70164355
C       4.12519782      0.52297223      0.46056374
C       4.37686771     -0.53153100      1.33933016
C       3.87867434     -1.80394196      1.06535849
C       3.13134802     -2.02536622     -0.08951275
C       2.87946010     -0.97387169     -0.97096863
C      -1.12636149      2.00003430      1.07774216
O      -0.88552121      2.23409162      2.23805648
N      -2.13232274      1.24222319      0.53283387
C      -2.40911929     -0.07762817      1.13167838
C      -3.72237512     -0.07738392      1.91501956
O      -4.22298979     -1.07646668      2.41093781
O      -4.29261307      1.14542311      2.03105336
H      -3.98184128     -0.23295181     -1.18580267
H      -4.46810156     -1.64597720     -0.24963770
H      -3.51050866     -1.85888372     -1.70878135
H      -1.83195096     -3.22351280     -0.30871376
H      -1.02497384     -2.48256842      1.08399693
H      -2.73085225     -2.92368234      1.17774479
H      -2.20092615      1.64349553     -1.57886714
H      -0.63114487      3.28425993     -0.63414769
H       1.42968227      1.41876460      0.36928961
H       3.31400253      1.14891490     -2.65806793
H       3.68180064      2.32796839     -1.40108175
H       4.52363744      1.50879317      0.69193528
H       4.96454477     -0.36183717      2.23828255
H       4.07701618     -2.62477532      1.74995627
H       2.74486305     -3.01834593     -0.30550999
H       2.29130310     -1.16396664     -1.86747037
H      -1.62096200     -0.27629680      1.87234011
H      -3.72068450      1.83419067      1.63252694
