45
O=C(O)CC(O)(CC(=O)O)C(=O)O.O=C(O)CC(O)(CC(=O)O)C(=O)O.[Mg].[Mg].[Mg]
O       1.22611879     -2.07156422      1.88419102
C       1.73151988     -1.57392857      0.89131453
O       2.53776433     -2.29625029      0.09247359
C       1.57183184     -0.15362143      0.43875050
C       0.18000062      0.14614328     -0.13115250
O       0.00537879     -0.64858246     -1.31666564
C      -0.95505351     -0.17881280      0.84535051
C      -2.30286239      0.28226758      0.35610533
O      -2.54594740      1.22246388     -0.38142893
O      -3.30919041     -0.44673210      0.88545289
C       0.20631977      1.62984464     -0.51725527
O       0.38401163      2.04739161     -1.65248670
O       0.09905664      2.47582014      0.52353389
O       1.22787699     -2.03960957     -0.52142259
C       1.67966136     -1.14021906      0.16693337
O       3.00259383     -0.94007110      0.27896873
C       0.87217962     -0.17092882      0.97777920
C      -0.05248159      0.69888920      0.12410507
O      -0.83649362      1.53364603      1.02693135
C      -1.00148666     -0.00069085     -0.85762687
C      -1.90601106     -0.97035956     -0.16056153
O      -2.14813640     -0.98035667      1.03723607
O      -2.50832041     -1.82265957     -1.00440676
C       0.81276193      1.67832144     -0.68403940
O       1.58563016      1.36060013     -1.57417816
O       0.61742612      2.96414452     -0.29528315
Mg      0.00000000      0.00000000      0.00000000
Mg      0.00000000      0.00000000      0.00000000
Mg      0.00000000      0.00000000      0.00000000
H       2.53187323     -3.19375360      0.48537338
H       1.81003660      0.49000313      1.29444258
H       2.34101696      0.05144324     -0.31747029
H       0.33398468     -0.11679651     -2.07162990
H      -1.02482517     -1.26564173      0.97649983
H      -0.78459661      0.28569012      1.82316254
H      -4.12373337     -0.05114517      0.50741745
H       0.08729509      3.36576124      0.10827262
H       3.41178420     -1.57962443     -0.34157223
H       0.31885481     -0.74141427      1.73138185
H       1.55137180      0.46860402      1.55722055
H      -1.41055972      0.92215830      1.54180494
H      -0.44630359     -0.52477247     -1.64235866
H      -1.64857965      0.74038539     -1.34373977
H      -3.06361291     -2.40506275     -0.44548499
H      -0.05815521      2.94902007      0.42831296
