25
Oc1c2ccccc2cc2ccccc12
O       0.01884647      2.44283127     -1.05517442
C       0.00673515      1.18598206     -0.48819803
C       1.24497760      0.51037684     -0.39306321
C       2.46748896      1.07932869     -0.81078954
C       3.66906367      0.37670370     -0.70757734
C       3.67320235     -0.91111282     -0.18589828
C       2.47672482     -1.49428657      0.23199296
C       1.25972570     -0.79717459      0.13452756
C       0.05583351     -1.38632536      0.55175325
C      -1.16941335     -0.70379703      0.47482721
C      -2.35304774     -1.32021221      0.91556943
C      -3.57430245     -0.65004375      0.86665132
C      -3.62737868      0.65040818      0.38376344
C      -2.46028309      1.27572209     -0.06114689
C      -1.21009050      0.61105564     -0.04081737
H      -0.81691967      2.55494780     -1.53494034
H       2.48347651      2.08811507     -1.21916978
H       4.59686615      0.83851305     -1.03400285
H       4.60578641     -1.46264628     -0.10283368
H       2.50128755     -2.50348516      0.63747290
H       0.07526090     -2.39803753      0.95469715
H      -2.33074195     -2.33444882      1.30945337
H      -4.47886531     -1.14088788      1.21591306
H      -4.57395919      1.18423417      0.35958221
H      -2.54027385      2.30423945     -0.40259213
