24
COc1cc(Br)c2c(c1OC)C(=O)OC2
C      -3.16987087     -1.45033872     -0.33337239
O      -2.34731806     -0.29157874     -0.36517677
C      -0.99833737     -0.46435473     -0.19262075
C      -0.38845148     -1.67816971      0.17082046
C       1.00252702     -1.76174349      0.31316969
Br      1.79179064     -3.40929592      0.79417185
C       1.77398457     -0.63564724      0.09619195
C       1.17319697      0.55819575     -0.25001531
C      -0.20118750      0.67649073     -0.39000136
O      -0.76094578      1.85246379     -0.80566246
C      -1.16280265      2.64030689      0.31445617
C       2.21254571      1.57179413     -0.40540368
O       2.07515585      2.74849908     -0.66833485
O       3.40518118      0.94609532     -0.16353320
C       3.23484673     -0.44658233      0.16219611
H      -4.19300795     -1.14063264     -0.56710596
H      -2.86068747     -2.17818138     -1.09087291
H      -3.17780753     -1.89741934      0.66590274
H      -0.98143311     -2.57091359      0.34447837
H      -0.31686456      2.85786632      0.97569726
H      -1.54867724      3.59084381     -0.06567533
H      -1.96455432      2.14954114      0.87644088
H       3.76821539     -1.04606261     -0.58070621
H       3.63450181     -0.62117652      1.16495569
