29
CNC(=O)Oc1cccc2c1OC(C)(C)O2
C       3.84274469      1.31399461     -2.12355624
N       3.09008713      0.12390646     -1.83769683
C       2.35650853     -0.00486305     -0.68915543
O       2.37639681      0.79386454      0.23789269
O       1.61272822     -1.17085196     -0.75793123
C       0.74909490     -1.32087253      0.32076454
C       1.06693358     -2.22221281      1.33834300
C       0.17758482     -2.40353655      2.41152656
C      -1.02963227     -1.69716288      2.46169586
C      -1.31460995     -0.82849447      1.42713328
C      -0.45266806     -0.64531132      0.37273970
O      -0.93438979      0.23686272     -0.54513963
C      -2.18356983      0.63075771      0.07297053
C      -2.12558929      2.12929836      0.36911776
C      -3.31886594      0.31660308     -0.90035778
O      -2.44158619     -0.07336392      1.31353812
H       3.15661671      2.08173942     -2.49081847
H       4.34232674      1.67573486     -1.22085515
H       4.58295447      1.08163453     -2.89249338
H       2.86000363     -0.52224666     -2.57941437
H       2.00100985     -2.77565046      1.30679507
H       0.43086620     -3.09746262      3.20969965
H      -1.72238448     -1.82740245      3.28565273
H      -3.05296755      2.47880964      0.83478952
H      -1.93752027      2.70751746     -0.54158686
H      -1.30977584      2.35118998      1.06684779
H      -3.35647599     -0.75867541     -1.11006922
H      -3.17489490      0.82768019     -1.85804668
H      -4.29092594      0.59851353     -0.48238552
