25
CP(=O)(F)OC1CCCCC1
C       3.32610611      0.31958766      1.18626069
P       2.67639159      0.68416397     -0.43075491
O       2.29997814      2.12288497     -0.63102693
F       3.63626540      0.20515166     -1.57764812
O       1.42618850     -0.32988493     -0.58120168
C       0.19755141      0.02062342      0.04123846
C      -0.77351935      0.52438275     -1.02614487
C      -2.16072787      0.78259655     -0.44730101
C      -2.70872951     -0.44950101      0.26854396
C      -1.73938601     -0.96469573      1.32952091
C      -0.35344140     -1.21862774      0.74609531
H       4.23910130      0.89390567      1.36505527
H       3.56850474     -0.74332847      1.27010181
H       2.60283932      0.57151198      1.96638587
H       0.36371962      0.80809586      0.78686731
H      -0.38227672      1.44083224     -1.48334493
H      -0.83996329     -0.20780145     -1.84153051
H      -2.84632718      1.07853113     -1.24921756
H      -2.11124500      1.62186921      0.25730537
H      -2.89865030     -1.24204647     -0.46581115
H      -3.67096796     -0.20822091      0.73399418
H      -1.66434569     -0.23136552      2.14185392
H      -2.13044592     -1.88927922      1.76871859
H       0.33718274     -1.52984938      1.53921616
H      -0.39380266     -2.05953624      0.04134604
