13
COc1nsc(N)n1
C      -2.28460153      0.70313962      0.39725179
O      -1.92294461     -0.63992445      0.11460513
C      -0.58288066     -0.79842574      0.04660542
N      -0.19348305     -2.04830243     -0.19803317
S       1.47420234     -2.01499008     -0.23143921
C       1.54982892     -0.32018836      0.07440601
N       2.69872851      0.37455626      0.16019984
N       0.35800796      0.20947263      0.19794380
H      -1.95088598      1.37959362     -0.39763824
H      -3.37666288      0.75549620      0.44392188
H      -1.89233056      1.02405491      1.36885202
H       2.60615245      1.37994259      0.06025916
H       3.51686909     -0.00442478     -0.30217759
