31
Cl/C=C/C[N+]12CN3CN(CN(C3)C1)C2.[Cl-]
Cl      4.97759330      0.53862834      1.49144539
C       3.80629364      0.20755653      0.28658223
C       2.75298243     -0.58301358      0.51937863
C       1.71358571     -0.91539121     -0.50068623
N       0.32682240     -0.36167270     -0.23438345
C      -0.27571249     -0.89151808      1.02060916
N      -1.61002678     -0.37669744      1.20699925
C      -2.45687466     -0.77486938      0.09551346
N      -1.91438133     -0.23548386     -1.14035676
C      -1.87633608      1.21542932     -1.06045385
N      -1.02979894      1.61464872      0.05086070
C      -1.57066840      1.07523933      1.28878474
C       0.31263192      1.12591400     -0.14882108
C      -0.58522547     -0.74693198     -1.35378360
Cl      0.00000000      0.00000000      0.00000000
H       4.03187615      0.71099773     -0.64614139
H       2.66683793     -1.05647053      1.49569039
H       2.01589533     -0.54996740     -1.49076015
H       1.61868850     -2.00621328     -0.57122979
H       0.36512064     -0.61489912      1.86784354
H      -0.27172579     -1.98926832      0.97194169
H      -2.53535194     -1.86911971      0.04002397
H      -3.48862615     -0.43078752      0.24988168
H      -1.50973310      1.64658139     -2.00190469
H      -2.88910562      1.62477267     -0.94438873
H      -2.57334999      1.47996658      1.48270546
H      -0.97013158      1.39985889      2.14940571
H       0.96451821      1.44196646      0.67617572
H       0.75457313      1.53124569     -1.06964680
H      -0.16139089     -0.36758776     -2.29428732
H      -0.58898010     -1.84291378     -1.43699788
