43
CC1NC(=O)c2ccccc2N(CC(O)C(O)C(O)CO)C1=O
C      -2.22849999      2.09601390     -3.20340493
C      -2.29005463      1.15079303     -2.00962636
N      -3.34684084      1.54396835     -1.10781095
C      -3.83829495      0.77195585     -0.10063206
O      -4.79817360      1.15864850      0.55788615
C      -3.21673074     -0.54714746      0.16329875
C      -4.12207056     -1.54941133      0.56886868
C      -3.67416029     -2.81179001      0.94282816
C      -2.31416031     -3.07854089      0.93305542
C      -1.40773166     -2.08542644      0.54618043
C      -1.82819040     -0.80014983      0.14189191
N      -0.82352381      0.16078528     -0.23726662
C       0.46314824      0.16912333      0.49676568
C       1.66890741     -0.25829275     -0.36605684
O       1.38129719     -1.49053238     -1.06888895
C       2.95768588     -0.51769548      0.44488502
O       3.95188756     -1.01996106     -0.46628534
C       3.49086319      0.72034148      1.17621521
O       2.62272141      1.06471321      2.26505090
C       4.89635387      0.49725904      1.74723927
O       5.24949894      1.64947335      2.52357219
C      -0.99168673      1.16821180     -1.19695270
O      -0.10573450      1.99537157     -1.42892778
H      -1.41457302      1.81652865     -3.88082890
H      -3.16719518      2.06932623     -3.76700606
H      -2.06157163      3.13268746     -2.88912100
H      -2.47296748      0.13377297     -2.37518191
H      -3.77418847      2.45959455     -1.18908431
H      -5.18964837     -1.33389476      0.60908789
H      -4.38359915     -3.57405522      1.25468594
H      -1.94938721     -4.05904581      1.23093874
H      -0.35579853     -2.36211290      0.54792839
H       0.38675013     -0.45116853      1.39631662
H       0.61486399      1.19660322      0.84807822
H       1.87915697      0.48205609     -1.14569329
H       0.58104875     -1.31248224     -1.59639397
H       2.76438213     -1.32213716      1.16607101
H       3.46367991     -1.65059540     -1.03650542
H       3.51985836      1.58350439      0.50041305
H       3.14693891      1.70064962      2.79765447
H       5.64024371      0.36537532      0.95628694
H       4.91335807     -0.36658142      2.41960265
H       6.16213746      1.50426389      2.83086570
