19
O=C(C(F)(F)C(F)(F)F)C(F)(C(F)(F)F)C(F)(F)F
O       0.26057701     -0.62957146     -1.91673214
C       0.30038632     -0.42525117     -0.70175184
C       1.50180390     -0.81973866      0.12604960
F       2.06636044     -1.97419511     -0.33527328
F       1.15343519     -1.08543729      1.41796428
C       2.50088885      0.32745141      0.06330822
F       3.59669628      0.08559427      0.81998629
F       1.95338750      1.48334983      0.51206098
F       2.92994473      0.56400477     -1.19778216
C      -0.84243716      0.20222792      0.04000597
F      -0.40281337      0.78785374      1.19869861
C      -1.50717778      1.23758915     -0.80916644
F      -0.61407818      2.19197135     -1.17111737
F      -2.05643092      0.75238350     -1.93887587
F      -2.49364564      1.87105219     -0.13289305
C      -1.84138079     -0.86691591      0.34710033
F      -1.28008482     -1.84439033      1.09881812
F      -2.89365987     -0.39223309      1.04788441
F      -2.33177171     -1.46574512     -0.75700037
