29
CCOC(=O)CC1(C)OCC(C)O1
C       3.58886775      1.66074462      1.14974390
C       3.11374767      1.12391089     -0.18623916
O       2.11917478      0.12397627      0.06256574
C       1.58104313     -0.42284790     -1.06167998
O       1.91031661     -0.14402831     -2.20747973
C       0.52562737     -1.42974082     -0.71274578
C      -0.87277378     -0.82980656     -0.76769006
C      -1.25169354     -0.27985105     -2.14025825
O      -1.80309354     -1.88826080     -0.44009511
C      -2.67962302     -1.32001250      0.53454263
C      -1.79155632     -0.33941414      1.25814510
C      -2.54566265      0.74437061      1.99803664
O      -1.01027429      0.22428565      0.20172881
H       4.00568207      0.85486082      1.76286727
H       2.75259221      2.08880934      1.71239378
H       4.35284240      2.43086212      1.01150363
H       2.68121449      1.93782516     -0.77891831
H       3.95622542      0.67941643     -0.72772145
H       0.73664157     -1.83315347      0.28595603
H       0.62089578     -2.28364841     -1.39439910
H      -1.13869692     -1.04233862     -2.91790271
H      -0.65921663      0.60113987     -2.40537214
H      -2.30195979      0.03452637     -2.15008462
H      -3.50388875     -0.82921852      0.00517726
H      -3.08372422     -2.09968146      1.18546503
H      -1.10595691     -0.86086862      1.93684655
H      -3.17549789      0.32162491      2.78623640
H      -1.84463408      1.45366017      2.45066504
H      -3.17661891      1.32285794      1.31439377
