18
Clc1ccc(Cl)c2ccccc12
Cl      1.98875622     -2.70624914     -0.53156066
C       1.50467843     -1.05696284     -0.29654753
C       2.52376417     -0.10231834     -0.31926896
C       2.21897990      1.24041892     -0.13884565
C       0.89417830      1.63260824      0.06483671
Cl      0.61818472      3.33182804      0.27974937
C      -0.16275914      0.68597625      0.09303206
C      -1.51788519      1.04637386      0.29703339
C      -2.53916306      0.09667429      0.32054386
C      -2.23521688     -1.24236534      0.14062368
C      -0.91057948     -1.62912421     -0.06246202
C       0.14938610     -0.68918547     -0.09174042
H       3.55724957     -0.40116648     -0.47741720
H       3.01703523      1.97877454     -0.15760738
H      -1.79941065      2.08784736      0.44249248
H      -3.56844880      0.40805446      0.47950764
H      -3.02410785     -1.99004807      0.15728292
H      -0.71464160     -2.69113608     -0.19965227
