37
CC(C)n1ccc(NS(=O)(=O)c2ccc(N)cc2)nc1=O
C      -4.75618019     -0.59294332      0.37811776
C      -3.61990247      0.27926243      0.91712462
C      -3.20054350     -0.15707491      2.32436758
N      -2.48446628      0.32797291     -0.02698408
C      -1.70408169     -0.79193254     -0.23384233
C      -0.69285452     -0.78597239     -1.10097285
C      -0.49693776      0.49254057     -1.78473650
N       0.56334263      0.61820332     -2.68657196
S       1.95597033     -0.26948778     -2.85274921
O       1.59155550     -1.65121007     -3.07845753
O       2.80685370      0.45158915     -3.77263769
C       2.70036105     -0.14122930     -1.24621329
C       2.97276019      1.12232776     -0.71759679
C       3.53034321      1.22557538      0.55914734
C       3.86336792      0.08031626      1.28998936
N       4.30380417      0.19430888      2.61259233
C       3.54159092     -1.17488818      0.76301525
C       2.98175051     -1.29406958     -0.51157216
N      -1.22525764      1.53932802     -1.65343662
C      -2.27897562      1.50178745     -0.77316694
O      -3.00959900      2.48087325     -0.64714354
H      -5.07192329     -0.24874526     -0.61270335
H      -5.62494477     -0.55220931      1.04354487
H      -4.45326834     -1.64121991      0.28515035
H      -4.02596179      1.29196341      1.02444819
H      -2.87369889     -1.20130276      2.35379182
H      -2.37654359      0.46373672      2.69231051
H      -4.03833067     -0.05505284      3.02259763
H      -1.94892006     -1.69091879      0.32273383
H      -0.09581729     -1.66132845     -1.29698027
H       0.61269776      1.51432767     -3.16755376
H       2.74690793      2.02507850     -1.27995986
H       3.70750290      2.21251693      0.98015197
H       4.81190891     -0.61707864      2.95130004
H       4.79394545      1.06139569      2.81165832
H       3.72948935     -2.07453717      1.34421170
H       2.76405496     -2.28190308     -0.91098654
