37
CCCCCCC(=O)NNC(=O)c1ccncc1
C       5.93674890     -2.23378862      1.90812019
C       4.68869230     -1.37335790      2.02430017
C       4.23075311     -0.86353505      0.65804230
C       2.97468219      0.00163886      0.77932185
C       2.51999300      0.51466729     -0.59053406
C       1.27888942      1.40090809     -0.49741029
C       0.00283578      0.62786921     -0.22723151
O      -0.08867300     -0.59738098     -0.23529301
N      -1.08227637      1.45012037      0.02013632
N      -2.35020211      0.83443136      0.01856799
C      -3.35277100      1.48758695     -0.67522237
O      -3.21295271      2.62649874     -1.11603698
C      -4.61414784      0.73310156     -0.90077853
C      -5.46295152      1.16157578     -1.92284240
C      -6.63742058      0.46346319     -2.13054432
N      -7.01022203     -0.60560064     -1.39570399
C      -6.17994711     -0.99008923     -0.40363191
C      -4.98177822     -0.36021439     -0.11497510
H       5.75253463     -3.10893227      1.27683396
H       6.76606388     -1.66562168      1.47482996
H       6.24685045     -2.58712895      2.89649648
H       3.88894152     -1.96106804      2.48983142
H       4.89678908     -0.52574812      2.68759979
H       4.02756693     -1.71520642     -0.00259537
H       5.03589653     -0.28012513      0.19499128
H       3.17939085      0.85342735      1.43936959
H       2.17487986     -0.58314727      1.24781507
H       2.33327093     -0.33146709     -1.26273957
H       3.33272963      1.10216960     -1.03521900
H       1.14311379      1.91878901     -1.45465665
H       1.41098288      2.16198433      0.28016388
H      -1.07938560      2.41635264     -0.31002723
H      -2.32058257     -0.18430622      0.06396267
H      -5.21563777      2.01692003     -2.54347052
H      -7.33133164      0.75305808     -2.91485216
H      -6.51897925     -1.84457146      0.17618915
H      -4.38234634     -0.71327297      0.71530521
