12
N#Cc1cccnc1
N       3.40341483      0.87412345     -0.33883453
C       2.29658743      0.54239579     -0.23182441
C       0.93400844      0.13713968     -0.09987782
C      -0.08746009      1.06988058      0.08196358
C      -1.40321893      0.62758480      0.20595818
C      -1.64795781     -0.73536765      0.14313456
N      -0.68056730     -1.66253817     -0.03201785
C       0.58966674     -1.20569870     -0.14972006
H       0.13169044      2.13425223      0.12775074
H      -2.21873417      1.32870209      0.34821485
H      -2.65677210     -1.12921234      0.23453243
H       1.33934253     -1.98126174     -0.28927968
