53
O=C(O)C(NCCCCCNC(C(=O)O)c1ccccc1)c1ccccc1
O       4.57103940     -2.04078614      2.10140252
C       4.49482394     -2.25639893      0.89889181
O       4.97148010     -3.41613118      0.39209162
C       3.93095500     -1.31058400     -0.18084289
N       2.79567361     -0.55061058      0.39677396
C       2.08304997      0.25810209     -0.58671559
C       0.87257262      0.94944414      0.05077013
C      -0.18026284     -0.03640172      0.56746553
C      -1.40167313      0.69880111      1.12650511
C      -2.44823357     -0.29177668      1.64827361
N      -3.61572640      0.34969790      2.27722792
C      -4.46135165      1.13996829      1.31822151
C      -5.67380898      1.68751999      2.11448973
O      -6.38194194      2.62410402      1.77737043
O      -5.87439228      0.98663309      3.26752649
C      -4.93949054      0.34433313      0.11705185
C      -5.67510967     -0.84348924      0.26593830
C      -6.09941043     -1.56248176     -0.85283055
C      -5.79680314     -1.10497680     -2.13314256
C      -5.07155206      0.07284484     -2.29732682
C      -4.64626771      0.79425753     -1.18025993
C       5.03189546     -0.42002006     -0.73618205
C       5.76678475      0.44333153      0.09425950
C       6.76871216      1.25808946     -0.43575254
C       7.04920545      1.22220986     -1.79979265
C       6.32895720      0.37196980     -2.63595197
C       5.32628748     -0.44419621     -2.10895678
H       5.30763787     -3.89068867      1.18082543
H       3.52452700     -1.95773804     -0.96954837
H       3.14394320      0.02909715      1.16005040
H       2.73650606      1.03380659     -1.00083497
H       1.73961313     -0.36932678     -1.41763194
H       0.41466757      1.60367666     -0.70167409
H       1.20573396      1.59854166      0.87056107
H       0.25000840     -0.66985296      1.35199357
H      -0.49391288     -0.69822276     -0.24910105
H      -1.82779257      1.32669950      0.33643928
H      -1.08667342      1.36613149      1.93827816
H      -1.98045112     -0.91579577      2.41958641
H      -2.75368674     -0.98574847      0.85804909
H      -3.24606607      1.02120260      2.95977009
H      -3.88845506      2.02163216      1.00579998
H      -5.18315736      0.28032728      3.28991076
H      -5.92002174     -1.22197092      1.25583157
H      -6.66781982     -2.48007886     -0.72421634
H      -6.12948713     -1.66454808     -3.00318222
H      -4.83870250      0.43181196     -3.29626349
H      -4.08595900      1.71415333     -1.33284101
H       5.56713564      0.48532035      1.16379077
H       7.33188147      1.91976426      0.21766886
H       7.83049207      1.85603318     -2.21086030
H       6.54898329      0.34321549     -3.70005502
H       4.77564297     -1.10089582     -2.77930821
