28
CC(O)(CCC(C)(O)C(=O)O)C(=O)O
C      -1.93490762      1.74687684     -1.19045598
C      -1.78513809      0.26616730     -0.85057352
O      -1.45162415     -0.41500877     -2.06605959
C      -0.69063647     -0.00819382      0.19684574
C       0.72745870      0.38077887     -0.25970622
C       1.81498946      0.05343251      0.77851452
C       3.17423599      0.58035409      0.31745102
O       1.48294960      0.71873983      2.00143112
C       1.94641599     -1.46585040      0.98645991
O       1.84535920     -2.34615779      0.14926021
O       2.23913814     -1.77378986      2.27374669
C      -3.12100882     -0.25950747     -0.29483162
O      -3.89414181      0.31264233      0.45470577
O      -3.37559614     -1.52705333     -0.70306173
H      -1.05989082      2.12813816     -1.72718218
H      -2.09148542      2.35459864     -0.29306607
H      -2.79313655      1.90458413     -1.85478688
H      -1.71047817     -1.34809838     -1.92860295
H      -0.69709354     -1.08031749      0.43211007
H      -0.93983426      0.51458830      1.12890066
H       0.74178722      1.46145244     -0.44679485
H       0.96127934     -0.11670299     -1.20872761
H       3.15116188      1.66853244      0.19070958
H       3.48573129      0.12344136     -0.62793053
H       3.94818813      0.36924731      1.06483248
H       1.96961804      0.24283363      2.70364479
H       2.29870112     -2.75356443      2.27085705
H      -4.24204222     -1.73216347     -0.29045790
