23
CC(=O)OCCC(C)C
C       4.21006762      0.11354721      0.09234042
C       2.91106254      0.12373999      0.83816524
O       2.81006465      0.25148377      2.04998553
O       1.87461813     -0.02902054     -0.03070226
C       0.58107765     -0.03250181      0.59145680
C      -0.46535668     -0.22654529     -0.50315286
C      -1.90039839     -0.36770641      0.02962557
C      -2.38080341      0.89215543      0.75106023
C      -2.85205101     -0.69847640     -1.12250155
H       5.03510942      0.23643442      0.79984372
H       4.33360019     -0.84170702     -0.42398539
H       4.23537906      0.94247175     -0.61941930
H       0.43118243      0.92350213      1.10421490
H       0.52674032     -0.85445879      1.31461829
H      -0.19980820     -1.12112250     -1.08215925
H      -0.40181628      0.60840454     -1.21333722
H      -1.93097563     -1.20304922      0.74060997
H      -1.79272040      1.08304289      1.65377721
H      -3.42582207      0.78664154      1.06219164
H      -2.30868423      1.77245779      0.10343636
H      -2.54792695     -1.62238671     -1.62578644
H      -2.86871140      0.10431349     -1.86757725
H      -3.87382734     -0.84122025     -0.75497583
