23
O=C(O)COc1ccc([N+](=O)[O-])cc1[N+](=O)[O-]
O       4.75522727     -1.21778578     -0.23701631
C       3.76337525     -0.50315708     -0.28906977
O       3.78931557      0.73313640     -0.83742412
C       2.39307316     -0.94540153      0.19635436
O       1.59610711      0.20051168      0.50258039
C       0.24860502      0.02364721      0.34745065
C      -0.40826897     -1.09545449      0.87051815
C      -1.79775708     -1.21758298      0.75178470
C      -2.53870560     -0.20802124      0.11906076
N      -3.99715810     -0.34410878     -0.00156807
O      -4.60262181      0.53286886     -0.63120933
O      -4.52721085     -1.32881492      0.52956330
C      -1.90221201      0.92772937     -0.39525775
C      -0.50870576      1.03303708     -0.27071090
N       0.15306542      2.21462166     -0.82352509
O      -0.48154675      3.27680642     -0.81033186
O       1.29726367      2.07341997     -1.28607569
H       2.91319995      1.18720794     -0.82912868
H       2.52834285     -1.53326933      1.10991660
H       1.94782340     -1.55333109     -0.60020631
H       0.13991291     -1.87357088      1.39798596
H      -2.28701610     -2.09854145      1.16717804
H      -2.47410855      1.71605295     -0.88374610
