8
Cl/C=C/[As](Cl)Cl
Cl      3.03244991     -0.15698458      0.09312823
C       1.35884285      0.22739793     -0.30247957
C       0.34010269     -0.36955291      0.33953746
As     -1.43725726      0.07263974     -0.11670537
Cl     -2.27858621      1.84763751      0.72891990
Cl     -2.73827165     -1.47257287     -0.78608180
H       1.14027852      0.95692114     -1.07588579
H       0.58244114     -1.10548596      1.11956694
