39
CC(=O)c1c(C)c([N+](=O)[O-])c(C(C)(C)C)c([N+](=O)[O-])c1C
C       4.18099870      0.31092486      0.99489625
C       3.44727851      0.44775859     -0.31026288
O       3.99867012      0.69150341     -1.37665004
C       1.97782608      0.27451388     -0.28207778
C       1.43186027     -0.99971256     -0.48969638
C       2.32979446     -2.18405220     -0.78899875
C       0.01592331     -1.15155955     -0.38196262
N      -0.46583288     -2.49315195     -0.68026873
O      -0.94159929     -2.67942574     -1.80617872
O      -0.31438519     -3.34932563      0.20144978
C      -0.89295201     -0.09055452     -0.06983562
C      -2.43915699     -0.30247726      0.13481465
C      -3.15062638     -0.15356674     -1.22656956
C      -2.83377355     -1.68425399      0.73177819
C      -3.10571288      0.68752403      1.13331265
C      -0.25216770      1.18677994      0.01393972
N      -1.02816555      2.41161597      0.15014025
O      -1.03612230      2.94583323      1.26725483
O      -1.57488634      2.84416040     -0.87099868
C       1.15744589      1.39378102     -0.08445276
C       1.76089415      2.77797638      0.05111674
H       4.90043878     -0.50837845      0.91806184
H       3.49148924      0.09299321      1.81543081
H       4.69914569      1.24777297      1.21534026
H       1.92569708     -2.79075754     -1.60578158
H       2.44015433     -2.80212039      0.10766302
H       3.32979168     -1.88954092     -1.11789453
H      -2.79504225     -0.88651304     -1.95671077
H      -2.99255279      0.83612807     -1.66505522
H      -4.23292602     -0.29520025     -1.12292040
H      -2.79826287     -2.49258359     -0.00135794
H      -3.87541453     -1.69767482      1.07752609
H      -2.20777789     -1.93984663      1.59380395
H      -4.11115068      0.35823601      1.42555551
H      -2.51966932      0.78020733      2.05432011
H      -3.27631686      1.67707496      0.70455987
H       1.20304402      3.51250669     -0.53862467
H       2.78823964      2.83409285     -0.31810010
H       1.76580229      3.07931197      1.10343320
