33
CCCCC(=O)[O-].CCCCC(=O)[O-].[Zn+2]
C      -2.04560605      0.92806833     -0.45547345
C      -0.92755611      0.21457456      0.28861905
C       0.17262629     -0.24950258     -0.66834338
C       1.29201645     -0.99429231      0.05335283
C       2.19541685     -0.15588170      0.96384314
O       2.80245873     -0.82318135      1.85033789
O       2.24229643      1.08138831      0.72159210
C      -2.27202856      0.30089957      0.03537775
C      -0.85441878      0.11996571      0.55540450
C       0.07298321     -0.42901110     -0.53091780
C       1.49542166     -0.64621110     -0.02289801
C       2.31234645      0.61354694      0.28320777
O       3.27575229      0.42684625      1.08111360
O       1.94724012      1.67308976     -0.29626366
Zn      0.00000000      0.00000000      0.00000000
H      -2.50783195      0.26792544     -1.19633753
H      -1.66789986      1.81548671     -0.97331483
H      -2.82280130      1.24871339      0.24530540
H      -1.34499506     -0.64826345      0.82063862
H      -0.51544454      0.89175880      1.04471963
H       0.57786001      0.61023826     -1.21510268
H      -0.26548152     -0.92094725     -1.41723309
H       0.86502813     -1.81943588      0.63690590
H       1.94991350     -1.44664928     -0.69950959
H      -2.91926439      0.69074989      0.82723566
H      -2.68949151     -0.65167459     -0.30615979
H      -2.29567335      1.00668025     -0.80107180
H      -0.87131333     -0.56592420      1.41042443
H      -0.48474982      1.08389558      0.92185622
H       0.07592548      0.24655785     -1.39458024
H      -0.32076160     -1.39013732     -0.88420789
H       2.05687725     -1.19790403     -0.78752852
H       1.47115486     -1.28136944      0.87136158
