10
C[C@H]1CO1
C       1.18801139      0.29859997     -0.19033318
C       0.00753804     -0.47007362      0.28462677
C      -1.39328371      0.03350110      0.06556849
O      -0.82004931     -0.99265044     -0.75992435
H       0.95873059      0.89906976     -1.07680711
H       2.00529870     -0.38372130     -0.44339674
H       1.53818955      0.97332029      0.59674160
H       0.21601216     -1.10342647      1.13582359
H      -1.53809083      1.00979082     -0.37924995
H      -2.16235659     -0.26441011      0.76695088
