12
C=COC(C)=O
C      -2.54528515      0.11949224      0.28455881
C      -1.39928874      0.02194745     -0.39173561
O      -0.16738046      0.03198525      0.26216268
C       0.94223381     -0.07460249     -0.53857586
C       2.17193286     -0.04747482      0.31973743
O       0.96266073     -0.17683336     -1.75843479
H      -3.49774545      0.11062638     -0.23431023
H      -2.55340676      0.20972023      1.36546325
H      -1.35442559     -0.06936840     -1.46982962
H       2.22321006      0.89859131      0.86449093
H       3.05877313     -0.13222655     -0.31491033
H       2.15872154     -0.89185724      1.01347394
