55
COc1cc2ncnc(Nc3ccc(F)c(Cl)c3)c2cc1OCCCN1CCOCC1
C      -0.57944989     -3.33143456     -4.18550816
O      -0.71976318     -2.19249565     -3.34605047
C       0.36086079     -1.83448997     -2.58522939
C       1.55004330     -2.56208080     -2.48309428
C       2.61836542     -2.12925940     -1.70168116
N       3.72017803     -2.88238858     -1.66622659
C       4.73429327     -2.43231824     -0.92032303
N       4.74578518     -1.30873380     -0.19909846
C       3.62882853     -0.55976395     -0.22298158
N       3.57012756      0.62922769      0.55526685
C       4.62681027      1.32246815      1.18683462
C       5.93978471      1.31263856      0.69386518
C       6.94754559      2.06537492      1.30455083
C       6.64312067      2.85951168      2.40164678
F       7.62139813      3.57792337      2.97208111
C       5.34116825      2.91404876      2.88773788
Cl      4.94721717      3.91383375      4.23350066
C       4.33554586      2.15938923      2.27710957
C       2.50388860     -0.92669277     -0.98991809
C       1.30887826     -0.17753372     -1.09191751
C       0.24684746     -0.64536553     -1.86177721
O      -0.87162708      0.14378973     -1.94080950
C      -1.89022072     -0.34254928     -1.05263694
C      -3.10867706      0.56287458     -1.20830455
C      -4.29886335      0.11324511     -0.35544085
N      -4.00027952      0.03205694      1.08276825
C      -5.07395537     -0.67832337      1.81774092
C      -6.35840169      0.14692963      2.00561258
O      -6.08520339      1.39356091      2.65641502
C      -5.11911424      2.15091340      1.91752450
C      -3.81566767      1.35695922      1.71964597
H      -1.50333020     -3.43679530     -4.76197700
H      -0.45173426     -4.24272146     -3.59219737
H       0.24355171     -3.20232316     -4.89651536
H       1.68267426     -3.49717091     -3.01902672
H       5.63388173     -3.03830624     -0.89773108
H       2.73774860      0.59647610      1.13596283
H       6.19551580      0.72073533     -0.18161609
H       7.96274650      2.04108875      0.92121275
H       3.32027852      2.22458841      2.66002543
H       1.20152928      0.77803066     -0.58591474
H      -1.51914116     -0.30939247     -0.02108076
H      -2.16412205     -1.37428668     -1.30298526
H      -2.83023762      1.60003964     -0.98905272
H      -3.41225418      0.56825444     -2.26333715
H      -5.15063624      0.77240496     -0.55792073
H      -4.58984499     -0.88252463     -0.71510923
H      -4.67653578     -0.93058565      2.80967012
H      -5.30567583     -1.63413753      1.33326565
H      -7.06024012     -0.40604965      2.63876491
H      -6.85972101      0.34031519      1.05047048
H      -4.91025176      3.06084557      2.48941421
H      -5.55679735      2.45906358      0.96159050
H      -3.08517577      1.96345060      1.17472971
H      -3.37169192      1.17768445      2.70805465
