29
Nc1ccc(Cc2ccc(N)c(Cl)c2)cc1Cl
N       4.93355954      0.20150925      0.88446154
C       3.63743348      0.26812105      0.33989683
C       3.02056515      1.51569570      0.20412007
C       1.78465717      1.64080421     -0.43981229
C       1.15482519      0.52215846     -1.00004436
C      -0.18560302      0.65310135     -1.68470049
C      -1.34262838      0.17393533     -0.83925348
C      -1.91900621     -1.08314319     -1.06146768
C      -2.98029132     -1.53186592     -0.26756481
C      -3.51412242     -0.72521988      0.74226766
N      -4.49711514     -1.25862805      1.59582727
C      -2.89623743      0.51119081      0.99761282
Cl     -3.45567576      1.52775394      2.28172735
C      -1.83630353      0.96531575      0.20666614
C       1.79011329     -0.72373937     -0.91002165
C       3.02541383     -0.84276022     -0.26587516
Cl      3.76993039     -2.40374432     -0.20091760
H       5.11537063      0.89064029      1.60650114
H       5.18516449     -0.74350269      1.16869987
H       3.50102927      2.40720508      0.59956085
H       1.32475417      2.62454238     -0.50877678
H      -0.15670043      0.10269442     -2.63454935
H      -0.36406507      1.69782728     -1.97228901
H      -1.53702430     -1.73359993     -1.84576907
H      -3.38449266     -2.52599939     -0.44194289
H      -4.98803773     -0.53888711      2.12272065
H      -5.12364717     -1.91983733      1.14957786
H      -1.38698794      1.93310468      0.41551648
H       1.32512191     -1.60467255     -1.34564803
