16
FC(F)(F)c1nc2ncncc2[nH]1
F       3.34290007     -0.96531015     -0.02205656
C       2.87633287      0.31201049      0.07594353
F       3.42332147      1.00038741     -0.95558798
F       3.38539489      0.81921976      1.22516542
C       1.38424800      0.32984296      0.05147557
N       0.56155163      1.36665129      0.12330010
C      -0.70024364      0.84284470      0.05783982
N      -1.84289011      1.54897187      0.09662801
C      -2.93226494      0.77304605      0.01322271
N      -2.98828614     -0.57298007     -0.09957075
C      -1.82706135     -1.25789015     -0.13627235
C      -0.65929193     -0.53414719     -0.05583962
N       0.66961780     -0.84526761     -0.05857429
H      -3.88814931      1.28782730      0.03936295
H      -1.88016668     -2.33486085     -0.22666250
H       1.07498738     -1.77034580     -0.12837405
