52
CCC(=O)Nc1cccc(Nc2cc(S(=O)(=O)[O-])c(N)c3c2C(=O)c2ccccc2C3=O)c1.[Na+]
C       7.27552462      2.65846904      1.08729300
C       5.81239849      2.35929683      0.81160956
C       5.47596083      0.88428057      0.97340801
O       6.31039204      0.05851774      1.32922176
N       4.14521194      0.64124601      0.68516111
C       3.47589163     -0.59992307      0.66388755
C       4.08468958     -1.82969330      0.89728176
C       3.33927585     -3.00668212      0.79837183
C       1.98411213     -2.95774449      0.46068370
C       1.34087670     -1.73388933      0.24141337
N      -0.01402675     -1.74503562     -0.16103481
C      -0.85822030     -0.69125876     -0.58885846
C      -0.34973634      0.34200075     -1.37391078
C      -1.11381618      1.47386866     -1.68295787
S      -0.19097036      2.82839055     -2.47201539
O      -0.02838046      2.33458530     -3.83423491
O      -1.06714805      3.98859479     -2.31251544
O       1.02885766      2.87143187     -1.66329249
C      -2.44502479      1.59726370     -1.26032823
N      -3.27505342      2.62749596     -1.75104033
C      -2.99719875      0.51288977     -0.53347281
C      -2.21843463     -0.61897306     -0.20948344
C      -2.84333814     -1.75559095      0.51999514
O      -2.18809774     -2.74033243      0.85435428
C      -4.28315357     -1.73189836      0.82323580
C      -4.89451465     -2.85596325      1.39831898
C      -6.25895338     -2.84052834      1.69263117
C      -7.01565921     -1.70344661      1.41782237
C      -6.40665074     -0.58338928      0.84964030
C      -5.03654903     -0.60012137      0.54889733
C      -4.39950888      0.59308207     -0.03135579
O      -5.04254263      1.63938859     -0.04581880
C       2.10789426     -0.56653427      0.35703838
Na      0.00000000      0.00000000      0.00000000
H       7.47846946      3.72503531      0.95149327
H       7.54640308      2.38584426      2.11285132
H       7.92619689      2.09707924      0.40879293
H       5.18694156      2.93518214      1.50348373
H       5.56613243      2.66360193     -0.21232041
H       3.58359346      1.44136478      0.40188066
H       5.13956027     -1.90594961      1.13877204
H       3.82197298     -3.96529716      0.96608587
H       1.43079101     -3.88781642      0.35895933
H      -0.54174725     -2.50810586      0.27805312
H       0.66816255      0.29854254     -1.75884785
H      -2.71913026      3.46867156     -1.99174425
H      -4.06335926      2.83926901     -1.13687655
H      -4.30890568     -3.74675542      1.61848631
H      -6.72865776     -3.71463263      2.13731322
H      -8.07847422     -1.68488685      1.64711853
H      -7.00166917      0.30470727      0.64150907
H       1.63961222      0.40434833      0.22192882
