28
CSCOC(=O)c1ccccc1OC(C)=O
C       3.73333654     -1.37701731      1.48669530
S       4.36511911      0.09255035      0.64245659
C       2.80768524      1.02241902      0.51872709
O       1.84814660      0.29704518     -0.24688592
C       0.63836435      0.90379021     -0.31206829
O       0.35435179      1.97416691      0.20073895
C      -0.31006979      0.05510821     -1.08094098
C       0.16033145     -0.87385530     -2.02318844
C      -0.73756443     -1.64589144     -2.76705314
C      -2.11187479     -1.49449078     -2.58474896
C      -2.59445744     -0.57573186     -1.65444776
C      -1.69495176      0.18197056     -0.89828496
O      -2.25761570      1.09755030     -0.00148404
C      -2.11983186      0.72276280      1.33066942
C      -2.68483673      1.80465451      2.20110210
O      -1.62834864     -0.31820984      1.74803104
H       4.56645725     -2.05072012      1.70430427
H       3.01820570     -1.90818983      0.85334284
H       3.25661542     -1.10051793      2.43072278
H       3.02624740      1.97477607      0.02421381
H       2.43352073      1.21496188      1.53039766
H       1.22693063     -1.00102710     -2.19618846
H      -0.36237988     -2.36292895     -3.49405225
H      -2.80705882     -2.09297327     -3.16885824
H      -3.66525461     -0.45591081     -1.51467036
H      -2.13735546      2.73611826      2.03665672
H      -2.57619525      1.51784324      3.25095881
H      -3.74751706      1.93804036      1.98385445
