27
Cc1cccc2c1ccc1ccccc12
C      -3.47582881     -0.81488879      1.08775033
C      -2.48038458      0.00496114      0.30522893
C      -2.97104844      1.05710981     -0.47860579
C      -2.10204970      1.84225235     -1.21750210
C      -0.73238904      1.58376386     -1.18064825
C      -0.17578920      0.53539181     -0.40806384
C      -1.08185733     -0.26343117      0.34643899
C      -0.55661600     -1.31131342      1.12253773
C       0.80938650     -1.58012951      1.16814729
C       1.71295231     -0.81106420      0.43785309
C       3.08500307     -1.11002859      0.50691443
C       4.01957194     -0.36620770     -0.20698522
C       3.59036055      0.68648456     -0.99892764
C       2.22735665      0.99161325     -1.07405524
C       1.24118546      0.25857601     -0.36239075
H      -4.50119713     -0.46206559      0.93224001
H      -3.44080085     -1.86185200      0.76972608
H      -3.26744147     -0.74515554      2.16022865
H      -4.03693989      1.26995173     -0.51666630
H      -2.48508990      2.65794229     -1.82485040
H      -0.10005342      2.23193977     -1.78003983
H      -1.20893146     -1.94804468      1.71522426
H       1.15666969     -2.40472357      1.78710649
H       3.43833554     -1.93356865      1.12427594
H       5.07633213     -0.60972820     -0.14315256
H       4.30982100      1.27544107     -1.56163887
H       1.94944238      1.82677393     -1.71014542
