22
Clc1cc(Cl)cc(-c2cc(Cl)c(Cl)cc2Cl)c1
Cl      3.81120198     -1.39293776      2.11847049
C       2.89580367     -0.61232353      0.88802236
C       3.55268596      0.04047241     -0.15027447
C       2.80096763      0.66924080     -1.13782947
Cl      3.59847680      1.48358660     -2.42702508
C       1.40570004      0.64932763     -1.09332769
C       0.73665911     -0.01035502     -0.05034780
C      -0.73166652     -0.03291993      0.00650964
C      -1.39293630      0.82672887      0.90333783
C      -2.78959427      0.84453323      0.99282985
Cl     -3.50723151      1.93613372      2.12255444
C      -3.54942903     -0.00328821      0.18238027
Cl     -5.27543498     -0.03652842      0.23804183
C      -2.91179607     -0.86495614     -0.71195795
C      -1.51606156     -0.88043838     -0.79897521
Cl     -0.79998887     -1.98771729     -1.91914290
C       1.50098565     -0.64000160      0.94440666
H       4.63811403      0.05858159     -0.18975864
H       0.83717697      1.14689061     -1.87700375
H      -0.80956913      1.49440696      1.53695430
H      -3.50190474     -1.52779557     -1.34116760
H       1.00784115     -1.16064057      1.76330289
