37
CC(Oc1ccc(Oc2cnc3cc(Cl)ccc3n2)cc1)C(=O)O
C      -6.00339232      0.09027773      0.05615640
C      -4.54368845      0.17677204      0.48427612
O      -3.74809132     -0.00959845     -0.69228863
C      -2.51819423     -0.59293343     -0.54542071
C      -1.78282238     -0.65977565      0.63974936
C      -0.51763540     -1.25558560      0.64428850
C       0.02048430     -1.75843100     -0.54094084
O       1.23902193     -2.38965557     -0.56027459
C       2.35623394     -1.60071905     -0.31906950
C       3.56138287     -2.25491340     -0.13977889
N       4.72188338     -1.59428852      0.08429929
C       4.64427073     -0.25002155      0.11832223
C       5.79403377      0.49321824      0.34424137
C       5.74597274      1.88397663      0.38494567
Cl      7.18435434      2.78325125      0.66640246
C       4.54086260      2.54941578      0.19912557
C       3.37950260      1.80977927     -0.02896329
C       3.40723708      0.42208576     -0.07311589
N       2.26432376     -0.25183400     -0.29506564
C      -0.71178619     -1.70487279     -1.72371781
C      -1.97451279     -1.11023957     -1.72532093
C      -4.30168673      1.55196699      1.10708306
O      -4.71912308      1.89079889      2.20515266
O      -3.58878206      2.38588904      0.31073055
H      -6.20982605     -0.87977236     -0.40853633
H      -6.23998442      0.85791793     -0.68967911
H      -6.67862130      0.22280344      0.90747869
H      -4.34761219     -0.60233918      1.22996621
H      -2.14728648     -0.24787207      1.57561311
H       0.05019964     -1.30962669      1.56925531
H       3.62911825     -3.33622822     -0.17112980
H       6.73698604     -0.02723438      0.48966206
H       4.49404122      3.63498606      0.22974952
H       2.43248079      2.32467208     -0.17489689
H      -0.30029674     -2.11331949     -2.64209139
H      -2.53902049     -1.05707066     -2.65325846
H      -3.33002736      1.92852050     -0.51921017
