27
CC1=CC(C)C(C=O)C(C)C1
C       2.98434373      0.00242150     -1.01625910
C       1.54474158     -0.02176461     -0.58929426
C       1.06136574     -0.96936500      0.23415200
C      -0.38672140     -1.06951579      0.66663633
C      -0.85834612     -2.51993377      0.49385153
C      -1.29946300     -0.09935361     -0.11723637
C      -2.65690093      0.09605090      0.53572054
O      -2.99150898     -0.37538701      1.61729500
C      -0.63763853      1.27571513     -0.35357607
C      -0.38823131      2.05971733      0.94466121
C       0.67497085      1.08303025     -1.13580107
H       3.46409905      0.92823440     -0.68279536
H       3.55211782     -0.83651821     -0.60044723
H       3.05625758     -0.05439372     -2.10720266
H       1.73560552     -1.72627712      0.63271498
H      -0.42370067     -0.83388894      1.73817079
H      -1.88888111     -2.65043677      0.83800260
H      -0.81226351     -2.83308709     -0.55555433
H      -0.23195932     -3.20708541      1.07423246
H      -1.51515366     -0.53883020     -1.10229854
H      -3.37011703      0.70668070     -0.04568408
H      -1.30848985      1.89063578     -0.96899016
H      -1.32545701      2.25220318      1.47638668
H       0.28505301      1.53419421      1.62837756
H       0.06207861      3.03312568      0.72076830
H       1.23249448      2.02779542     -1.14396730
H       0.44170447      0.84603278     -2.18186344
