7
O=S(=O)([O-])[O-].[Na+].[Na+]
O      -0.15007033      1.15316496     -0.90612469
S       0.00000001      0.00000004     -0.00000002
O      -0.03832224      0.46551218      1.39828546
O       1.28920558     -0.66567082     -0.26115866
O      -1.10081300     -0.95300636     -0.23100208
Na      0.00000000      0.00000000      0.00000000
Na      0.00000000      0.00000000      0.00000000
