15
O=C1NC2C=CC1C2
O       2.64024726      0.24032713     -0.46071340
C       1.42587354      0.20308358     -0.42151177
N       0.54830024      1.30413108     -0.45828222
C      -0.77737639      0.80586174     -0.17841573
C      -0.74562720      0.27958293      1.23829880
C       0.02049598     -0.82830190      1.23807901
C       0.51052602     -1.00652836     -0.18530057
C      -0.73589386     -0.51932985     -0.93651730
H       0.89632245      2.24059447     -0.30176709
H      -1.58028438      1.49454677     -0.43864336
H      -1.22100894      0.73724693      2.09203525
H       0.29740942     -1.43364540      2.08697269
H       0.90154065     -1.97698994     -0.48015060
H      -1.62113652     -1.14855293     -0.78245083
H      -0.55938827     -0.39202627     -2.01163287
