27
C=C(C)C(=O)NCNC(=O)C(=C)C
C       3.41515674     -0.81221048      1.61495115
C       3.15030633      0.13691140      0.70171297
C       4.12985355      1.20204494      0.31581222
C       1.81273143      0.22774488      0.04322953
O       1.30532063      1.31192335     -0.22049728
N       1.24413473     -0.97740521     -0.27568920
C       0.08237022     -1.05812178     -1.11204880
N      -1.04864111     -0.48069621     -0.45984697
C      -2.31494200     -0.75125598     -0.90357809
O      -2.55309413     -1.62407674     -1.73327455
C      -3.39858724      0.10200798     -0.31266561
C      -4.64216277     -0.05442101     -0.79885461
C      -3.09892078      1.06635799      0.79259066
H       4.38140729     -0.85789321      2.10871790
H       2.67597533     -1.54378311      1.92609568
H       4.29942597      1.19001357     -0.76592829
H       3.75716323      2.19176079      0.59921472
H       5.09962541      1.05964778      0.80446854
H       1.80458049     -1.81239044     -0.19039517
H      -0.10493450     -2.11192532     -1.34064708
H       0.26482565     -0.51449545     -2.04511714
H      -0.85504441      0.39150661      0.01076879
H      -5.47913410      0.51983938     -0.41623868
H      -4.85902724     -0.76258341     -1.59489418
H      -4.00974633      1.53250572      1.18442334
H      -2.61079662      0.55724510      1.63012632
H      -2.44784577      1.87174888      0.43756383
