42
CC(C)COC(=O)CC(C(=O)OCC(C)C)S(=O)(=O)[O-].[Na+]
C      -6.38556664     -0.75533052     -0.06538243
C      -5.10754637      0.06005944      0.11807942
C      -4.65990459      0.65662163     -1.21846215
C      -4.00403416     -0.80581264      0.73870164
O      -2.86454621      0.01626364      1.00873772
C      -1.75010296     -0.67590130      1.36112530
O      -1.72028686     -1.86146448      1.67335031
C      -0.54827689      0.22120102      1.39059450
C       0.49639635     -0.27977867      0.40374741
C       1.83894677      0.27988866      0.75715945
O       2.03663151      1.36073872      1.30525062
O       2.82846426     -0.63542574      0.51795878
C       4.16610065     -0.20469660      0.80684422
C       4.77280142      0.54931948     -0.38401298
C       6.12737938      1.14315056     -0.00254589
C       4.92211670     -0.36713022     -1.60002659
S       0.10419867      0.15557307     -1.26249086
O       1.23043844     -0.34645069     -2.04420692
O      -0.02824406      1.60893090     -1.24100163
O      -1.14909663     -0.55851584     -1.50346660
Na      0.00000000      0.00000000      0.00000000
H      -6.22475378     -1.59988321     -0.74410816
H      -7.18682271     -0.13492137     -0.48055990
H      -6.73419075     -1.15270796      0.89367245
H      -5.31795613      0.89656806      0.79667992
H      -5.45493744      1.27128458     -1.65395127
H      -3.78011301      1.29601895     -1.09207531
H      -4.40710456     -0.12911727     -1.93852041
H      -3.73007451     -1.61838228      0.05389521
H      -4.35576129     -1.23685527      1.68359040
H      -0.17152807      0.20559842      2.42102283
H      -0.84479636      1.25716543      1.19025018
H       0.55742347     -1.37476896      0.44204612
H       4.75057011     -1.10667741      1.02270636
H       4.18781412      0.40125694      1.72092073
H       4.10086943      1.36810344     -0.66934505
H       6.02442306      1.83568936      0.83951881
H       6.55850597      1.69985399     -0.84131622
H       6.83791911      0.36116582      0.28630318
H       5.33440245      0.18437506     -2.45173758
H       5.59326388     -1.20562301     -1.38459067
H       3.95697822     -0.77938372     -1.90806240
