34
CCCCCCCCCCC=O
C      -5.29871657      1.25653168      0.18428492
C      -4.59051100     -0.06705885      0.42567599
C      -3.15468199     -0.03849772     -0.10023906
C      -2.44712682     -1.37217908      0.14949236
C      -1.04337763     -1.44030778     -0.45881548
C      -0.05212713     -0.47018742      0.18774215
C       1.35765610     -0.66127208     -0.37655734
C       2.35015331      0.30991101      0.26497601
C       3.75847387      0.11898928     -0.29826231
C       4.74777015      1.08660791      0.34106237
C       6.12229533      0.88140105     -0.23756487
O       6.79484591      1.78969615     -0.71522969
H      -5.34497977      1.48739905     -0.88477466
H      -6.32312914      1.21361608      0.56722685
H      -4.78066918      2.07690303      0.69118968
H      -5.15206228     -0.86959353     -0.06655750
H      -4.58900598     -0.28358428      1.50031496
H      -3.16193753      0.17871693     -1.17515891
H      -2.60974932      0.77444150      0.39240689
H      -3.04653273     -2.18190700     -0.28504828
H      -2.39049603     -1.56555513      1.22764154
H      -0.66991916     -2.46511473     -0.34024268
H      -1.10016439     -1.24828153     -1.53719341
H      -0.03740881     -0.62805446      1.27285643
H      -0.36978041      0.56376085      0.01313757
H       1.34230008     -0.50726030     -1.46240991
H       1.68755778     -1.69237390     -0.20054652
H       2.02092162      1.34122718      0.08887285
H       2.36498246      0.15605485      1.35085137
H       4.08871826     -0.91359776     -0.12878787
H       3.74789190      0.26860674     -1.38526002
H       4.81072373      0.92050534      1.42151749
H       4.44288416      2.12425535      0.16835459
H       6.52520123     -0.14379842     -0.17039387
