44
N[C@@H](CCC(=O)O)C(=O)O.OCCN(CCO)CCO
N      -2.33405596     -0.41803705     -0.79660453
C      -1.18589621     -0.46183125      0.16117008
C       0.07654733      0.05645997     -0.53298121
C       1.33822321     -0.12135884      0.31655970
C       2.57588641      0.23743258     -0.46074478
O       2.63526984      0.64862418     -1.60650350
O       3.69639778      0.04908110      0.26177952
C      -1.55137586      0.41545374      1.37239405
O      -0.97525855      0.40525037      2.44786250
O      -2.59819256      1.23409653      1.08928685
O      -1.20816761      2.56474092     -0.42636092
C       0.19423250      2.35270613     -0.32915613
C       0.56775337      1.31687454      0.74752173
N       0.03726295     -0.02345496      0.42415171
C      -1.32694978     -0.20948914      0.97486809
C      -2.24914830     -0.81058662     -0.09444592
O      -2.46878173      0.14370398     -1.13729161
C       0.92517409     -1.10551392      0.88492321
C       2.17406775     -1.28056034      0.00849830
O       2.93537501     -2.38894317      0.48313693
H      -3.05244594     -1.06541905     -0.45197074
H      -2.02993766     -0.83146751     -1.68331455
H      -1.06366276     -1.49635402      0.49917331
H      -0.03749802      1.11841684     -0.78930623
H       0.21434866     -0.47944259     -1.48183048
H       1.30040917      0.52416623      1.19929389
H       1.42776478     -1.16572674      0.63493394
H       4.42161533      0.32721860     -0.33602442
H      -2.85813899      1.02343693      0.15682661
H      -1.58596539      1.71460420     -0.74704145
H       0.65562024      3.31426921     -0.08229219
H       0.56931675      2.04830572     -1.31257412
H       1.66222185      1.30343737      0.79437258
H       0.22365268      1.64607806      1.73611191
H      -1.31535058     -0.85063107      1.86519416
H      -1.76454020      0.74364491      1.29564441
H      -3.22027481     -1.05620490      0.34665675
H      -1.82048011     -1.71983458     -0.52876992
H      -2.98969335     -0.31083030     -1.82233888
H       0.39033363     -2.06499149      0.85404431
H       1.21472401     -0.96461346      1.93478070
H       2.81757996     -0.39694799      0.03337346
H       1.88843366     -1.48026255     -1.02978017
H       3.69360341     -2.48550053     -0.11853276
