34
CC1(C)CC(N=C=O)CC(C)(CN=C=O)C1
C      -1.34639753     -1.98733072      0.30897525
C      -0.77567997     -1.14623648     -0.84759892
C      -0.81790314     -2.04089264     -2.10826349
C      -1.65029395      0.09801380     -1.10332183
C      -1.48064329      1.19278484     -0.04253177
N      -2.25649863      2.37551719     -0.46502649
C      -3.24304742      2.55537104      0.14447336
O      -4.22764933      2.72516829      0.76277922
C      -0.00907252      1.61685580      0.05672622
C       0.96159500      0.45290075      0.36844558
C       0.83202218      0.03683636      1.84845849
C       2.41421248      0.98103588      0.14519156
N       3.39264337     -0.08014170      0.43235018
C       4.50758485      0.25359789      0.28386597
O       5.62007447      0.59977226      0.13171239
C       0.69871043     -0.73441972     -0.59937616
H      -2.31914346     -2.41444173      0.03683387
H      -0.68053280     -2.82177579      0.55590356
H      -1.51064602     -1.41029447      1.21886297
H      -1.84240767     -2.35526366     -2.33818342
H      -0.21243964     -2.94415368     -1.97141881
H      -0.43193552     -1.51190942     -2.98709013
H      -2.70771790     -0.19180956     -1.16681876
H      -1.40071737      0.52164832     -2.08680862
H      -1.82097200      0.82508177      0.93425962
H       0.28198632      2.08573345     -0.89441454
H       0.09244426      2.40407163      0.81606450
H       1.23968883      0.81280169      2.50745093
H      -0.20159318     -0.11270080      2.16153202
H       1.37815146     -0.89011699      2.05427144
H       2.52656566      1.32468469     -0.89329933
H       2.59341154      1.84866084      0.79675576
H       1.27088040     -1.61424375     -0.27546567
H       1.12532007     -0.45480538     -1.57418046
