26
CCCCC(C)(C)C
C       3.61750136      0.57724210      0.18369429
C       2.46945890     -0.41211592      0.30656296
C       1.11271180      0.28241444      0.16508879
C      -0.03695679     -0.72509242      0.29070899
C      -1.46740101     -0.13613581      0.16359032
C      -1.67992352      0.51866641     -1.21126642
C      -2.47680804     -1.29124349      0.31549933
C      -1.74317390      0.89971455      1.26591779
H       3.60395037      1.07481768     -0.79127009
H       3.55917783      1.34454256      0.96226297
H       4.57638297      0.05992217      0.28774987
H       2.53109010     -0.91486879      1.27875080
H       2.57562411     -1.18315312     -0.46540799
H       1.07065096      0.78507679     -0.80710229
H       1.02609161      1.05351729      0.93806489
H       0.09670053     -1.50161632     -0.47472273
H       0.05241429     -1.23482719      1.25968917
H      -1.44405685     -0.17956446     -2.02199494
H      -1.05426264      1.40796328     -1.33898650
H      -2.72121237      0.83640740     -1.33915367
H      -2.37277230     -1.78223478      1.28969823
H      -2.32810009     -2.05134982     -0.45979629
H      -3.50877422     -0.93141602      0.23379796
H      -1.55337992      0.47904863      2.25962693
H      -1.11785717      1.79108411      1.15167123
H      -2.78707599      1.23320072      1.24038968
