52
NC(=O)c1nccn2cc(-c3cccc(-c4cncc(OC[C@H]5CCCO5)c4)c3)nc12
N       4.39235124     -0.63888523     -2.75720183
C       5.73006405     -0.45317305     -2.50773570
O       6.48686129      0.00640581     -3.35023188
C       6.23260715     -0.83693054     -1.11936987
N       7.43113939     -1.34835590     -0.96700537
C       7.84018327     -1.65985327      0.31888912
C       7.08319254     -1.47663225      1.41488427
N       5.81662148     -0.95040266      1.25110638
C       4.81690851     -0.66428919      2.13979377
C       3.77066436     -0.18290050      1.37347690
C       2.46805830      0.25706093      1.85567578
C       2.10062810      0.16222742      3.20316006
C       0.84092116      0.58965642      3.62636072
C      -0.06674218      1.11615905      2.70673673
C       0.26639101      1.22722757      1.34864418
C      -0.68834984      1.78030866      0.37703352
C      -0.34255232      2.82969511     -0.47627268
N      -1.17103997      3.38269236     -1.39197989
C      -2.41801949      2.86299444     -1.46166159
C      -2.88118779      1.81825351     -0.67088245
O      -4.16992074      1.42691293     -0.89041491
C      -4.64516496      0.30851673     -0.14030542
C      -6.09141485     -0.00032452     -0.54721676
C      -6.23683565     -0.42230099     -2.00496262
C      -6.16895385     -1.92656587     -1.92288575
C      -6.88235595     -2.19812952     -0.61857685
O      -6.57365125     -1.10012576      0.25084881
C      -1.99545822      1.27770666      0.26010368
C       1.54146622      0.79149873      0.94365815
N       4.11828357     -0.16934556      0.03397231
C       5.35499047     -0.62104977      0.00464912
H       3.75610136     -0.67936428     -1.96393194
H       4.04190803     -0.21244694     -3.60473368
H       8.84312579     -2.07301475      0.40447437
H       7.41171806     -1.72313989      2.41553379
H       4.93825819     -0.82771216      3.20031518
H       2.78089717     -0.24460297      3.94592497
H       0.56632882      0.51504868      4.67591307
H      -1.03833943      1.45383847      3.06354506
H       0.64713416      3.27973572     -0.43987050
H      -3.06555293      3.32448898     -2.20230331
H      -4.62508851      0.53510212      0.93351885
H      -4.01542605     -0.57275981     -0.31818137
H      -6.71486510      0.87938201     -0.35084187
H      -7.22747120     -0.12729277     -2.37223825
H      -5.49144885      0.01033292     -2.67731901
H      -5.12393479     -2.25022846     -1.85454141
H      -6.62970574     -2.43300080     -2.77477578
H      -6.56848665     -3.13644058     -0.15292943
H      -7.96856720     -2.22149139     -0.75706332
H      -2.29287862      0.45535063      0.90300384
H       1.81660845      0.86016349     -0.10854135
