19
CC(C)N(C)C
C       1.38061525     -0.92253929     -0.13582233
C       0.52707204      0.11433018      0.60460779
C       1.20826606      1.48825444      0.55061757
N      -0.87778641      0.21497300      0.16055790
C      -1.67310962     -0.93588786      0.59028987
C      -1.04891639      0.43768499     -1.27419935
H       0.93845686     -1.92199560     -0.08224146
H       1.51820579     -0.66249364     -1.19046627
H       2.37670382     -0.98518938      0.31687789
H       0.52016868     -0.16649103      1.66672097
H       2.18768313      1.44677108      1.04046737
H       0.61197383      2.24300246      1.07532362
H       1.36975013      1.83112835     -0.47636868
H      -2.73378603     -0.77067083      0.36900748
H      -1.60316742     -1.07514563      1.67479787
H      -1.36622850     -1.86616639      0.10068741
H      -2.10539512      0.61921338     -1.50402343
H      -0.72010043     -0.41704869     -1.87511992
H      -0.51040566      1.32827045     -1.61171431
