27
OCCC(F)(F)C(F)(F)C(F)(F)C(F)(F)C(F)(F)C(F)(F)F
O       4.49851680     -1.18182215      0.72008549
C       3.35890451     -0.76182964     -0.02121559
C       2.38735919     -0.06114250      0.91189420
C       1.19765269      0.58274812      0.21357595
F       0.52025900      1.28050906      1.16728840
F       1.66003692      1.50903217     -0.66557513
C       0.23953243     -0.38115134     -0.47854211
F      -0.23846329     -1.28207956      0.42377263
F       0.93410613     -1.12720201     -1.39119738
C      -0.91945456      0.28792921     -1.20591434
F      -0.41227353      1.06507924     -2.21455497
F      -1.64054033     -0.67704338     -1.85705000
C      -1.88941148      1.13201485     -0.39251879
F      -1.24086705      2.25581132      0.03876383
F      -2.85362310      1.61066308     -1.24292650
C      -2.57629927      0.47366097      0.78802300
F      -1.65618414      0.10462699      1.72273842
F      -3.36044326      1.40993871      1.41136184
C      -3.43892441     -0.71125719      0.39266921
F      -2.69892063     -1.73674694     -0.08345836
F      -4.34785607     -0.39500968     -0.55456661
F      -4.12402487     -1.19684699      1.45703058
H       5.02053240     -0.39173194      0.94511657
H       2.91697029     -1.66072196     -0.45690295
H       3.69185976     -0.10753810     -0.83289091
H       2.93014685      0.71889954      1.46180862
H       2.04140901     -0.75878989      1.68469546
