27
CC12CCC(C1)C(C)(C)C2=O
C       2.10128988      1.76827603      0.37566965
C       1.13627896      0.62035815      0.22518986
C       1.45376484     -0.63730465      1.05276530
C       0.68015764     -1.74241524      0.30490024
C      -0.09704729     -0.96338541     -0.78060142
C       0.98044650      0.05496922     -1.18911110
C      -1.22412184     -0.06521631     -0.16885873
C      -2.07566628      0.61017155     -1.24742717
C      -2.12444246     -0.78028375      0.83638750
C      -0.32394776      0.95854842      0.52004756
O      -0.71242837      1.88381999      1.21738466
H       3.11029518      1.48097593      0.06245872
H       1.79081464      2.62693167     -0.22956309
H       2.15202716      2.10380074      1.41709712
H       1.11268262     -0.54906098      2.09019147
H       2.52537902     -0.86541766      1.05925896
H       1.39110134     -2.43297668     -0.16548391
H       0.04653453     -2.33570318      0.96838481
H      -0.44571165     -1.60383989     -1.59482129
H       0.64041979      0.79132512     -1.92290007
H       1.89535559     -0.41809313     -1.56442715
H      -2.59841188     -0.13673286     -1.85451909
H      -1.48584752      1.23953729     -1.92054469
H      -2.82971816      1.26565455     -0.79616995
H      -2.95119898     -0.13277785      1.15140003
H      -1.59192099     -1.05393736      1.75300929
H      -2.55608452     -1.68722369      0.40028249
