29
Nc1cccc(S(=O)(=O)c2cccc(N)c2)c1
N       4.09686002      1.84132761     -1.45528786
C       3.35030386      0.98912436     -0.63415682
C       3.48309782      1.05770183      0.75696764
C       2.66477320      0.29654065      1.59736244
C       1.66799236     -0.50873963      1.05390850
C       1.48670970     -0.52282223     -0.33070867
S       0.18509218     -1.51348863     -1.02162063
O       0.30189829     -1.46516207     -2.46828106
O       0.21828103     -2.78832705     -0.32700494
C      -1.33723458     -0.69941239     -0.60594124
C      -1.66638424      0.49563895     -1.24916523
C      -2.84193101      1.15213102     -0.89632109
C      -3.68589848      0.60059509      0.07260234
C      -3.39391178     -0.63258539      0.66554151
N      -4.18573799     -1.11464671      1.71362600
C      -2.18677753     -1.25923352      0.35378623
C       2.31293935      0.22758152     -1.17358139
H       4.99593206      2.10642050     -1.06431263
H       4.17896604      1.52144093     -2.41614627
H       4.23562441      1.70492601      1.20115101
H       2.80236722      0.34290600      2.67489165
H       1.03577577     -1.10431389      1.70838801
H      -1.01359835      0.92304071     -2.00675666
H      -3.10089538      2.09825654     -1.36529103
H      -4.58394690      1.14330211      0.35803592
H      -5.15424696     -0.81195460      1.67078834
H      -4.10622430     -2.11631151      1.86416917
H      -1.91120206     -2.18266016      0.85734769
H       2.15137622      0.21872395     -2.24878105
