13
COCC[Hg+].[Cl-]
C      -1.88669296      0.14164444      0.28983332
O      -0.76316006      0.30144739     -0.53815680
C       0.32096024     -0.09039944      0.22872288
C       1.63423107      0.01254405     -0.49883115
Hg      3.13642809     -0.62200196      0.82613304
Cl      0.00000000      0.00000000      0.00000000
H      -2.81049231      0.43401961     -0.24455724
H      -1.69607171      0.78405517      1.18074636
H      -1.96256200     -0.91130165      0.65579316
H       0.12827434     -1.11103327      0.57265924
H       0.35406194      0.57517463      1.11237084
H       1.69000432     -0.59136557     -1.40178825
H       1.85501904      1.07721659     -0.73079811
