23
COC1CCCC(C)O1
C       2.72999647     -0.92834917      0.09226034
O       1.82466931      0.04767628      0.59025257
C       1.06116408      0.64621527     -0.45695381
C       0.31464841      1.86174670      0.09498839
C      -0.80669469      1.44491660      1.04143539
C      -1.69264807      0.39732349      0.37864880
C      -0.84607074     -0.75719536     -0.15831438
C      -1.70839127     -1.75678903     -0.91818898
O       0.15185096     -0.27310093     -1.06293804
H       2.19281369     -1.74843058     -0.39327487
H       3.29070766     -1.33660531      0.93752186
H       3.43928779     -0.47488968     -0.60683697
H       1.74698034      0.99679212     -1.23767160
H       1.00503370      2.52986842      0.62168839
H      -0.12742155      2.41923786     -0.73993225
H      -0.37989899      1.03491657      1.96476297
H      -1.40395768      2.31879445      1.32406903
H      -2.43827679      0.03037987      1.09269615
H      -2.23462936      0.87448246     -0.44793265
H      -0.35670693     -1.28528563      0.66933280
H      -2.18184834     -1.28703895     -1.78745495
H      -2.48884537     -2.17777144     -0.27714138
H      -1.09176261     -2.57689400     -1.30187750
