44
C[C@]12CC[C@@H]3c4ccc(O)cc4CC[C@H]3[C@@H]1CC[C@@H]2O
C      -2.34176646     -0.56200114     -1.55227984
C      -2.10016287      0.66914936     -0.64166755
C      -1.15082307      1.64352493     -1.34943323
C       0.28125549      1.08244510     -1.44263552
C       0.84849608      0.59848903     -0.08108825
C       2.24832644     -0.00950475     -0.14168558
C       3.20285361      0.44958423     -1.06824255
C       4.49840208     -0.07410511     -1.09918031
C       4.85834059     -1.05701567     -0.19051002
O       6.10865191     -1.59995291     -0.18516444
C       3.94699855     -1.51505785      0.74993049
C       2.64397820     -0.98955021      0.79538677
C       1.69721920     -1.54926382      1.82949578
C       0.42049236     -0.73327846      2.00842286
C      -0.15109115     -0.35598803      0.64029183
C      -1.50699042      0.34226080      0.74337357
C      -2.65519736     -0.35714771      1.46568076
C      -3.91517342      0.35533208      0.94060900
C      -3.44389796      1.27953174     -0.19917183
O      -4.39158138      1.34793411     -1.24662816
H      -2.76646991     -0.25223555     -2.51435346
H      -3.03977763     -1.27951390     -1.10968545
H      -1.42263670     -1.10969594     -1.77617213
H      -1.11390272      2.59400993     -0.80113951
H      -1.51890694      1.88289634     -2.35432088
H       0.31562243      0.26320384     -2.17085813
H       0.91090113      1.88053905     -1.85269536
H       0.95777367      1.49846768      0.54398378
H       2.95893797      1.23105437     -1.78233462
H       5.20397555      0.30142896     -1.83305760
H       6.62462186     -1.18936437     -0.89783763
H       4.25403628     -2.28569890      1.45291571
H       2.20577432     -1.62077915      2.79860628
H       1.42933018     -2.56847906      1.52255814
H      -0.29678695     -1.32283497      2.59014024
H       0.63459782      0.17295949      2.58966184
H      -0.25865721     -1.28234336      0.06142034
H      -1.33864673      1.28815008      1.28525921
H      -2.57176588     -0.26589970      2.55340966
H      -2.69123415     -1.42523478      1.22412749
H      -4.66052601     -0.37229912      0.60030071
H      -4.38712614      0.94731356      1.73277699
H      -3.29664696      2.29505521      0.18980550
H      -5.23081770      1.65391454     -0.86235982
