14
c1ccc2ocnc2c1
C      -1.78804705     -0.62063003      0.28268096
C      -1.75217324      0.75918958      0.04057737
C      -0.54407391      1.42795036     -0.19354645
C       0.59662959      0.63516972     -0.16834400
O       1.88814077      1.03216077     -0.36365620
C       2.59971682     -0.12362595     -0.23359773
N       1.89299334     -1.20344218      0.02242757
C       0.60492157     -0.73119465      0.06710163
C      -0.61133802     -1.38578746      0.29957547
H      -2.74380272     -1.10980922      0.46100387
H      -2.68284422      1.32410421      0.03417624
H      -0.49611486      2.49270999     -0.38235817
H       3.67106000     -0.04335858     -0.35255103
H      -0.63506806     -2.45343656      0.48651047
