34
NC(=NO)N1Cc2cccc3c2C(CCC3)C1
N       3.10546065     -2.31608913      0.63179329
C       3.06184068     -1.01354489      0.23709467
N       4.14283705     -0.32094083      0.01445810
O       5.29452283     -1.09957336      0.22449009
N       1.78960945     -0.49552657      0.15023284
C       1.66885439      0.93925785     -0.15989457
C       0.24889602      1.47329555     -0.09904176
C       0.03757058      2.84819526     -0.28462804
C      -1.25255021      3.37425336     -0.29048375
C      -2.34929921      2.53140626     -0.12544215
C      -2.16850941      1.15510362      0.06605004
C      -0.86251890      0.62794904      0.08442792
C      -0.62145415     -0.84196530      0.35206657
C      -1.82357507     -1.69976433     -0.05470304
C      -3.08279152     -1.16021071      0.61711504
C      -3.38468849      0.26482544      0.15587910
C       0.66536410     -1.30666626     -0.33956013
H       2.54236436     -2.46491838      1.45848825
H       4.07808830     -2.54754537      0.81879079
H       6.00199190     -0.48019746     -0.03286108
H       2.05690108      1.12174535     -1.17030089
H       2.27184374      1.51198610      0.55607440
H       0.88344589      3.51653091     -0.43245365
H      -1.40427711      4.44025412     -0.43808606
H      -3.35174830      2.95279279     -0.15545235
H      -0.48239433     -0.94164980      1.43890898
H      -1.95369634     -1.69809203     -1.14452897
H      -1.66122910     -2.73988402      0.25123697
H      -2.94831634     -1.17382315      1.70636131
H      -3.93853076     -1.80785296      0.39547612
H      -4.12134508      0.70857824      0.83624734
H      -3.84069599      0.22303267     -0.84161361
H       0.80613767     -2.37217967     -0.12682966
H       0.59189157     -1.20878234     -1.43093695
