18
CC(N)(CO)CO
C      -0.41402746      1.47184312      0.53341317
C       0.13034634      0.11847247      0.05701550
N       1.00332497      0.32636985     -1.13098623
C      -1.03169348     -0.82194612     -0.35168362
O      -1.78894903     -0.23750210     -1.41681074
C       0.97563265     -0.53703044      1.17027129
O       1.64795600     -1.68692677      0.65556236
H      -1.08420700      1.34206895      1.39068099
H       0.39677417      2.13996615      0.84652942
H      -0.97655825      1.98512359     -0.25456484
H       1.55588014      1.17407073     -1.00108865
H       0.37464276      0.53227614     -1.91629779
H      -1.70897921     -0.99407148      0.49192689
H      -0.65667905     -1.79141837     -0.69861874
H      -2.44109613     -0.90620219     -1.68982640
H       0.35470962     -0.85093588      2.01560549
H       1.74107321      0.15126618      1.54587525
H       1.92184976     -1.41542379     -0.24700334
