15
Nc1ccc2snnc2c1
N       2.53797114     -0.48080753     -0.28949059
C       1.19613154     -0.16973346     -0.03862091
C       0.84957174      1.10046126      0.42618910
C      -0.48694951      1.49135329      0.57896289
C      -1.47696825      0.57542658      0.20500126
S      -3.19507667      0.68730562      0.24036174
N      -3.41412202     -0.84039343     -0.39972071
N      -2.27523997     -1.46067302     -0.65575623
C      -1.17195163     -0.68368589     -0.31720034
C       0.18506220     -1.04293278     -0.45967600
H       3.20031113      0.01739044      0.29724837
H       2.73506070     -1.47650530     -0.33168125
H       1.63083813      1.81423511      0.68083476
H      -0.74121011      2.47567506      0.95849561
H       0.42657157     -2.00711595     -0.89494771
