27
CC(C)CN1CCOCC1
C      -1.99517034     -1.48017837      0.06278337
C      -1.92848251      0.03945035      0.22196484
C      -3.25655695      0.66022439     -0.22163194
C      -0.76524220      0.68380529     -0.56265808
N       0.54276556      0.19612596     -0.09758753
C       1.47915521      1.31344142      0.15144512
C       2.85583037      0.79882947      0.60208965
O       3.42569933     -0.08460019     -0.37297051
C       2.54601356     -1.19422260     -0.59975002
C       1.16619077     -0.71802542     -1.08113383
H      -2.87177952     -1.88645492      0.57911514
H      -1.11418368     -1.96434513      0.49538075
H      -2.06330532     -1.76616711     -0.99218203
H      -1.79696745      0.26358168      1.28888004
H      -4.09106586      0.24985594      0.35690117
H      -3.45109982      0.46630035     -1.28200334
H      -3.24974967      1.74486445     -0.07035977
H      -0.89826775      0.52200695     -1.64071961
H      -0.83747542      1.77080806     -0.41974109
H       1.60156460      1.90890126     -0.76293713
H       1.07842463      1.96795167      0.93412011
H       2.79013507      0.27933197      1.56579273
H       3.54346653      1.64159450      0.72555802
H       2.46487841     -1.78678533      0.31956356
H       3.00606787     -1.82823425     -1.36440805
H       1.28741713     -0.20340372     -2.04366133
H       0.53173747     -1.59465664     -1.24650492
