46
NS(=O)(=O)c1ccc(Nc2ccnc(NC(=O)NS(=O)(=O)c3ccc(Cl)cc3)n2)cc1
N       6.23023262      1.39049477     -3.17112149
S       6.73309491      1.02160015     -1.61304509
O       7.55988882     -0.15658151     -1.72743705
O       7.21911106      2.25885929     -1.04837409
C       5.20792182      0.58680173     -0.83044812
C       4.48109744      1.55706116     -0.13964389
C       3.29016094      1.20265365      0.50403612
C       2.81434693     -0.11419161      0.46783685
N       1.64391810     -0.53862963      1.12219959
C       0.85907712      0.04634635      2.11901007
C       1.39369267      0.82828362      3.12034869
C       0.51319292      1.31822319      4.05384345
N      -0.80572703      1.06710193      4.02894548
C      -1.23799569      0.28211152      3.03816736
N      -2.59684897      0.03163009      3.04159504
C      -3.32883484     -0.72078089      2.17829180
O      -4.54036624     -0.81182709      2.33094807
N      -2.65943319     -1.34012938      1.13512280
S      -3.30984600     -2.31895286     -0.02073108
O      -4.08648076     -3.36595225      0.60305249
O      -2.21704583     -2.64361815     -0.91692553
C      -4.40490989     -1.23275536     -0.90281146
C      -5.76558343     -1.20803597     -0.58066636
C      -6.62783209     -0.37287902     -1.29422540
C      -6.12848778      0.41852241     -2.32919810
Cl     -7.19239314      1.44699966     -3.20700535
C      -4.77311363      0.38141598     -2.66138490
C      -3.90543111     -0.45038835     -1.95005694
N      -0.45526684     -0.24453290      2.07989212
C       3.57065636     -1.07542809     -0.22344926
C       4.76324199     -0.73423515     -0.86788140
H       6.65223067      0.73956593     -3.83431760
H       6.42807962      2.37031751     -3.37635254
H       4.82775668      2.58754491     -0.10004330
H       2.72806696      1.98658015      1.00333884
H       1.08131428     -1.15992709      0.54839807
H       2.45391382      1.02509606      3.20123907
H       0.85611900      1.93792450      4.87779987
H      -3.10780623      0.46591567      3.79334686
H      -1.65610416     -1.18583973      1.05036802
H      -6.15560486     -1.82381288      0.22841122
H      -7.68404919     -0.34551097     -1.03825552
H      -4.39008540      0.99257656     -3.47474870
H      -2.85225365     -0.48635197     -2.21948612
H       3.23972745     -2.11224645     -0.24999769
H       5.33465776     -1.50101948     -1.38631557
