28
OCCOc1cccc(OCCO)c1
O       5.02257560      0.81533295      1.01412569
C       4.41098620      1.13173466     -0.23556850
C       2.89711904      0.96152809     -0.14173565
O       2.63314304     -0.42601651      0.09758671
C       1.32127969     -0.79916659      0.19963997
C       1.11791010     -2.16527392      0.39911689
C      -0.17317111     -2.67796195      0.52118302
C      -1.27526142     -1.82485246      0.44414227
C      -1.08436535     -0.45764124      0.24468186
O      -2.07238471      0.48549048      0.15255186
C      -3.42529803      0.01939352      0.22208299
C      -4.33839285      1.23357406      0.07496400
O      -4.16691271      2.11807913      1.18120156
C       0.21606379      0.04981046      0.12469587
H       4.66333982     -0.05327946      1.27697280
H       4.66910847      2.16404752     -0.48763290
H       4.83531466      0.46318731     -0.99125115
H       2.51664667      1.55645159      0.69669029
H       2.43892455      1.27745514     -1.08554133
H       1.97150277     -2.83599495      0.46011205
H      -0.31937795     -3.74369790      0.67791730
H      -2.26366185     -2.25967092      0.54707529
H      -3.62585189     -0.68439227     -0.59338182
H      -3.60104964     -0.45027056      1.19682660
H      -5.38761699      0.92675526      0.04614368
H      -4.10496885      1.79276718     -0.83655395
H      -3.20560660      2.26454875      1.26350064
H       0.33000552      1.11806263     -0.02619067
