9
O=C(O)C(Br)=C(Cl)Br
O      -0.92852396     -1.02619532      1.36256643
C      -0.87158810     -0.23213678      0.44146671
O      -1.94571557      0.03424566     -0.32434668
C       0.31129464      0.54285153      0.01870128
Br      0.10140245      2.40760605      0.03845118
C       1.43442694     -0.10679516     -0.33518547
Cl      1.53779605     -1.84745306     -0.38134760
Br      3.01978467      0.75123958     -0.87284156
H      -2.65887713     -0.52336249      0.05253571
