54
COc1cc(-c2ccncc2)cc2cnc(Nc3ccc([C@@H](C)NC(C)=O)cc3)nc12
C      -1.95934288      2.27873604     -2.07363859
O      -1.63147694      1.23970408     -1.16295875
C      -2.63774379      0.72966450     -0.37074102
C      -3.97487437      1.15775517     -0.43737477
C      -4.95829049      0.60474687      0.39539620
C      -6.35566702      1.05456089      0.32229555
C      -7.07358883      0.99111404     -0.87766974
C      -8.38986836      1.42536928     -0.89728990
N      -9.03339818      1.91642625      0.18122036
C      -8.33057160      1.97392049      1.33068000
C      -7.01282434      1.56035506      1.44987801
C      -4.56669878     -0.38966149      1.29673810
C      -3.22663908     -0.81865429      1.35793818
C      -2.79281141     -1.80269551      2.22855499
N      -1.52092550     -2.23234004      2.30883557
C      -0.63560265     -1.65789570      1.48261979
N       0.66718370     -2.13217578      1.60089183
C       1.86392520     -1.85959549      0.93134611
C       1.98453184     -0.93624073     -0.10975110
C       3.21625826     -0.69659175     -0.73422347
C       4.37112168     -1.38142354     -0.33548272
C       5.72527736     -1.11914900     -0.96907907
C       5.67892822     -1.12699740     -2.50014475
N       6.25580957      0.13607206     -0.46351198
C       7.59727034      0.42552053     -0.48525099
C       7.94730662      1.77526859      0.08118480
O       8.45443218     -0.34234955     -0.90962159
C       4.26172067     -2.29569470      0.71879187
C       3.02765906     -2.53004982      1.33708001
N      -0.96575691     -0.69825447      0.60946868
C      -2.24272274     -0.27302197      0.53349318
H      -2.32846417      3.16461639     -1.54657759
H      -1.04307451      2.56360498     -2.59971818
H      -2.67872566      1.93372044     -2.82344322
H      -4.27323063      1.93815996     -1.13141123
H      -6.62479411      0.59876492     -1.78468290
H      -8.97848511      1.38596510     -1.80956465
H      -8.87001239      2.37631865      2.18353124
H      -6.50862777      1.64620486      2.40710894
H      -5.30876036     -0.84741588      1.94956278
H      -3.47761314     -2.29522620      2.91371360
H       0.68737671     -2.85769744      2.30151528
H       1.12191875     -0.37780927     -0.46305807
H       3.25223510      0.03908956     -1.53414203
H       6.41806018     -1.91580926     -0.66745282
H       6.68782801     -1.05284709     -2.92048685
H       5.10655543     -0.28210856     -2.89838203
H       5.22703085     -2.05179058     -2.87513839
H       5.59970889      0.81264155     -0.09685769
H       8.62449803      2.28708507     -0.60823422
H       7.06059129      2.40068556      0.21677874
H       8.43754685      1.64041562      1.04892426
H       5.13868756     -2.83386020      1.07343033
H       2.98712936     -3.24913079      2.15202059
