52
CCCCCC1CCC(c2ccc(CCC)cc2)CC1
C       8.17755979     -1.04546301     -0.28896921
C       6.68119563     -1.20885947     -0.07531208
C       5.92363204      0.07486845     -0.41410972
C       4.41677411     -0.09373036     -0.19761732
C       3.66454986      1.19651404     -0.53913569
C       2.13458585      1.14701064     -0.35910323
C       1.71745674      0.90645850      1.09951932
C       0.19627037      0.94005680      1.25731893
C      -0.48856477     -0.06911558      0.31965408
C      -1.99911944     -0.04926682      0.47449235
C      -2.66984866     -1.19851725      0.91591929
C      -4.05932855     -1.20365856      1.06528818
C      -4.80909303     -0.05736753      0.78077480
C      -6.31002380     -0.06791833      0.92453235
C      -6.99847575     -0.50561759     -0.36876761
C      -8.51127977     -0.51405357     -0.21694848
C      -4.14560795      1.09014540      0.33342917
C      -2.75611217      1.09457981      0.18426937
C      -0.06053419      0.15539577     -1.14080710
C       1.46177373      0.12538299     -1.28810006
H       8.57996915     -0.24982985      0.34614408
H       8.40029957     -0.79873177     -1.33196715
H       8.69957505     -1.97489531     -0.04084698
H       6.31662685     -2.03249273     -0.70013924
H       6.49530465     -1.48661229      0.96871329
H       6.11643014      0.35016503     -1.45819975
H       6.29514109      0.89612512      0.21087166
H       4.05753232     -0.91768328     -0.82335645
H       4.23630268     -0.37151340      0.84630280
H       4.06047417      2.01217838      0.07983002
H       3.88273965      1.46923608     -1.57990393
H       1.76187024      2.14150924     -0.64452950
H       2.08384958     -0.06579631      1.44891399
H       2.16417167      1.66967384      1.74751988
H      -0.06429103      0.72018849      2.30016837
H      -0.15783531      1.95898106      1.05597537
H      -0.13158629     -1.06825593      0.60858247
H      -2.11507848     -2.10511808      1.14720802
H      -4.55264533     -2.11138923      1.40513156
H      -6.65464061      0.93214604      1.21708976
H      -6.59207371     -0.73597532      1.74831954
H      -6.66087419     -1.50895874     -0.65573916
H      -6.72382346      0.16786941     -1.18974424
H      -8.98430711     -0.82961751     -1.15213658
H      -8.88589051      0.48358657      0.03344470
H      -8.82245164     -1.20656311      0.57166965
H      -4.70701357      1.99092771      0.09623929
H      -2.27125172      2.00359783     -0.16367294
H      -0.50156506     -0.61621021     -1.78415075
H      -0.43288158      1.11921299     -1.51037375
H       1.81471645     -0.88813863     -1.06492757
H       1.72739628      0.33553955     -2.33080583
