19
CCOC(C)C(=O)C=O
C      -2.99863396     -0.19476893      0.49343288
C      -1.67439634      0.11962703     -0.17421248
O      -0.64170781     -0.55713213      0.53965521
C       0.66150885     -0.31931947      0.00296103
C       1.56939664     -1.38759953      0.60354533
C       1.21747336      1.06496388      0.33997366
O       0.72999979      1.87147387      1.12399406
C       2.47395933      1.47997992     -0.38256941
O       2.92276173      0.82378115     -1.30801649
H      -2.99059252      0.13293093      1.53825999
H      -3.82445604      0.29992521     -0.02541958
H      -3.18099725     -1.27449788      0.49941155
H      -1.50346128      1.20061454     -0.16298465
H      -1.69195577     -0.22856869     -1.21270439
H       0.62392912     -0.43746816     -1.08639012
H       2.58871759     -1.33314625      0.21079226
H       1.62105249     -1.28565413      1.69383476
H       1.17244448     -2.38765582      0.39735597
H       2.92495759      2.41251448     -0.00877076
