37
CCN(CC)C(=O)C(Cl)=CCOP(=O)(OC)OC
C      -3.18443090     -1.33402551     -1.31437661
C      -2.51999485     -0.10200470     -0.71866516
N      -2.97299786      0.16376026      0.65151932
C      -4.25211161      0.85493563      0.81089654
C      -4.07937668      2.36598996      0.84115317
C      -2.24643373     -0.12288811      1.80409569
O      -2.62382757      0.18010786      2.93578762
C      -0.92693743     -0.79429751      1.64132556
Cl     -0.93873582     -2.50483193      1.49839752
C       0.17721105     -0.03352401      1.66213834
C       1.58786178     -0.49834231      1.53384598
O       2.15243957      0.18246166      0.42999988
P       3.62875508     -0.29276128      0.00124240
O       4.62771390     -0.33130618      1.11352118
O       3.36271599     -1.70093516     -0.73152019
C       4.50032631     -2.38127905     -1.21963876
O       3.99494000      0.69511266     -1.21603171
C       4.30556616      2.02938194     -0.87201832
H      -2.99658590     -2.22323358     -0.70607039
H      -4.26903817     -1.20659504     -1.38589059
H      -2.80037093     -1.52070120     -2.32205190
H      -1.43514297     -0.23108920     -0.74839862
H      -2.74555486      0.77845657     -1.33072954
H      -4.72625509      0.52921981      1.74379195
H      -4.92188642      0.56692866     -0.00589068
H      -3.43070406      2.67362539      1.66775254
H      -3.63015955      2.73083128     -0.08804232
H      -5.04943148      2.85654476      0.96702217
H       0.05900690      1.04123555      1.79018810
H       1.67169134     -1.57792177      1.38348008
H       2.14141782     -0.23161053      2.44007948
H       5.04315259     -1.75348525     -1.93137227
H       4.17341971     -3.29120981     -1.72905314
H       5.15734828     -2.65734307     -0.39055706
H       4.48046829      2.59691876     -1.78942758
H       3.47447197      2.48554260     -0.32737284
H       5.21146915      2.05833182     -0.26066532
