21
Cc1cc(=O)c2ccccc2[nH]1
C      -3.22468796     -0.87401159      0.00358990
C      -1.87131336     -0.23183210      0.13117520
C      -1.73598399      0.98517635      0.68439515
C      -0.38665895      1.59252392      0.79617750
O      -0.24559651      2.70210719      1.29830080
C       0.76334213      0.81072009      0.28223790
C       2.06126225      1.32552558      0.35722588
C       3.12758748      0.57274840     -0.13237700
C       2.89419685     -0.68461972     -0.69195137
C       1.59422052     -1.19568651     -0.76492403
C       0.51559127     -0.45249642     -0.27823545
N      -0.79291617     -0.94805195     -0.34284520
H      -4.02284281     -0.23952701      0.40336280
H      -3.45219575     -1.07394479     -1.04881869
H      -3.24733345     -1.82319464      0.54933328
H      -2.56315959      1.56989278      1.06455904
H       2.23784667      2.30558918      0.79407274
H       4.13975548      0.96620222     -0.07765232
H       3.72796888     -1.26973099     -1.07314137
H       1.43482437     -2.17642597     -1.20429229
H      -0.95390738     -1.86096400     -0.75019248
