18
C=C(C)C(=O)OCC(F)(F)F
C      -2.02101335      1.12421657     -0.90370289
C      -1.60608850      0.00378531     -0.28792036
C      -2.54093376     -1.11996964      0.04654184
C      -0.18610323     -0.21732060      0.10945732
O       0.20411827     -1.23134750      0.66725242
O       0.59763356      0.84046922     -0.21786190
C       1.99770279      0.67264207      0.08293710
C       2.74981767     -0.05169755     -1.02364792
F       2.27846507     -1.29302666     -1.25447891
F       4.06156929     -0.16478743     -0.70671460
F       2.67900002      0.63692839     -2.18707676
H      -3.06157537      1.25767277     -1.18407476
H      -1.34769093      1.93933631     -1.15066951
H      -3.56772858     -0.90559142     -0.26881817
H      -2.55746270     -1.29687455      1.12710935
H      -2.22747184     -2.04214150     -0.45401035
H       2.41360504      1.67925147      0.19769442
H       2.13415657      0.16845475      1.04679785
