61
CC(=O)OCC(=O)[C@@]1(O)CC[C@H]2[C@@H]3CCC4=CC(=O)CC[C@]4(C)[C@H]3[C@@H](O)C[C@@]21C
C       6.49901692      0.41915164      2.64400726
C       5.20298983      0.75505369      1.97339336
O       4.10576852      0.36187022      2.34597936
O       5.42224528      1.57956794      0.91336016
C       4.24996431      1.87570841      0.15409808
C       3.84943467      0.73356611     -0.78192394
O       4.63415399     -0.18031812     -1.05016364
C       2.42819658      0.80014915     -1.38365386
O       2.09263569      2.17432206     -1.62267173
C       2.30558379      0.04122859     -2.73720215
C       0.89044796     -0.57207658     -2.77009164
C       0.19363729      0.01134540     -1.54500261
C      -1.07028381     -0.68389898     -1.01521399
C      -2.13613049     -0.76991858     -2.11982116
C      -3.43438261     -1.37710888     -1.60949161
C      -3.96255685     -0.64115775     -0.40217581
C      -5.24138522     -0.22557525     -0.37859098
C      -5.84329774      0.36700165      0.83783642
O      -6.99961205      0.78057566      0.80096367
C      -5.03001581      0.35424971      2.10463482
C      -3.55804118      0.57065196      1.78590548
C      -2.98001703     -0.45424330      0.76482477
C      -2.83459212     -1.82663669      1.46007166
C      -1.61851952      0.12527050      0.20440034
C      -0.51948905      0.40376002      1.27367140
O      -0.23340250     -0.76360163      2.03008810
C       0.78785456      0.96323198      0.67255357
C       1.33002359      0.12316308     -0.50204712
C       1.82941342     -1.26127599     -0.00441508
H       6.91066121      1.31159584      3.12151581
H       7.20296205      0.01512741      1.91171162
H       6.32424491     -0.34452155      3.40735520
H       3.42445557      2.15526069      0.81431911
H       4.48384817      2.74474894     -0.46952701
H       2.56011423      2.46912190     -2.42519418
H       3.04194411     -0.76259593     -2.84308123
H       2.43813829      0.71242536     -3.59336832
H       0.94653221     -1.66520624     -2.71792193
H       0.37090219     -0.31190602     -3.69804981
H      -0.11875575      1.02918123     -1.83134860
H      -0.82870316     -1.70565868     -0.70516661
H      -2.33656183      0.22972048     -2.52747035
H      -1.76705776     -1.38167653     -2.95137201
H      -4.16766743     -1.37857763     -2.42534223
H      -3.26938468     -2.42845956     -1.34371973
H      -5.91992860     -0.35710897     -1.21416978
H      -5.19907590     -0.59458425      2.62324046
H      -5.38104884      1.16530720      2.75196175
H      -2.98946953      0.54368334      2.72334368
H      -3.44624331      1.58818375      1.38539587
H      -2.39686196     -1.73531985      2.45903739
H      -3.80838050     -2.31258968      1.59779528
H      -2.21315787     -2.51978771      0.88458591
H      -1.86484846      1.12039285     -0.20346122
H      -0.89439566      1.14819219      1.98482194
H       0.49593423     -0.55672359      2.64204254
H       1.54805430      1.02856320      1.45850109
H       0.58725381      1.98909151      0.34000812
H       1.02451115     -1.90896306      0.34734038
H       2.34985453     -1.82689319     -0.78392229
H       2.53248986     -1.14407951      0.82626967
