22
Cc1c(C(=O)O)cc([N+](=O)[O-])cc1[N+](=O)[O-]
C      -1.69317882      1.74867778      0.24909337
C      -0.56299673      0.76164309      0.09247552
C      -0.79192664     -0.63148910      0.17322383
C      -2.14144597     -1.17555191      0.48953422
O      -3.00310594     -0.63988287      1.15668325
O      -2.33616552     -2.37656237     -0.08098719
C       0.26619585     -1.54377663     -0.00857339
C       1.56300381     -1.07970751     -0.25897369
N       2.65831964     -2.04089300     -0.44464088
O       3.79127119     -1.58393872     -0.64508702
O       2.38171967     -3.24596119     -0.38634192
C       1.82718082      0.28895108     -0.31485855
C       0.76630157      1.18579749     -0.12616150
N       1.10313116      2.60228214     -0.15285800
O       1.60186088      3.03646711     -1.19815064
O       0.88504311      3.25245702      0.87627586
H      -1.46969976      2.71272341     -0.21756464
H      -1.90554714      1.91391249      1.30963908
H      -2.59692539      1.39382151     -0.25679705
H      -3.24853634     -2.62738640      0.18000758
H       0.07045974     -2.61431802      0.05800275
H       2.83504081      0.66273460     -0.49394099
