64
CCCCCCCCCCCCCCCCCC(=O)NCCO
C      -8.61755462     -0.48399991      2.82035113
C      -9.00141755     -0.34297919      1.35518417
C      -7.83268654     -0.56820388      0.39348627
C      -6.74207840      0.49958435      0.50270804
C      -5.63855776      0.27129892     -0.53434995
C      -4.55939967      1.35186126     -0.44348975
C      -3.46988356      1.21087192     -1.51035282
C      -2.65573581     -0.08609425     -1.46058865
C      -1.96028118     -0.38874770     -0.12887568
C      -0.94869164      0.68361930      0.28178751
C      -0.23569670      0.37355440      1.60189791
C       0.61706660     -0.89934406      1.61878162
C       1.68842167     -0.99987555      0.52851503
C       2.69854722      0.14915641      0.55899688
C       3.80192424     -0.05264123     -0.48285342
C       4.77179898      1.13262224     -0.49475607
C       5.87505676      0.97428246     -1.53947885
C       6.95741472     -0.01025701     -1.13570770
O       7.01069199     -0.57000739     -0.04647552
N       7.91182154     -0.19118096     -2.11158297
C       9.00755370     -1.14144525     -1.97375990
C      10.01908064     -0.75063846     -0.89041754
O       9.59280372     -1.15115045      0.40708297
H      -8.13898017     -1.45035396      3.01032740
H      -7.93318164      0.30997713      3.13379043
H      -9.51074181     -0.41818543      3.45026346
H      -9.43916071      0.64813015      1.18561893
H      -9.78330501     -1.07788196      1.12859535
H      -8.22857790     -0.57262732     -0.62961016
H      -7.39914513     -1.56048118      0.56827261
H      -7.18462417      1.49243605      0.35903297
H      -6.29881962      0.48407943      1.50442785
H      -5.19617771     -0.71765202     -0.37172835
H      -6.07264854      0.27327299     -1.54152170
H      -4.11156890      1.35081642      0.55646749
H      -5.02968575      2.33524201     -0.56835197
H      -2.79153517      2.06844203     -1.43234125
H      -3.93339419      1.28713732     -2.50190795
H      -3.30566823     -0.93196202     -1.71355624
H      -1.89698362     -0.04445823     -2.25240740
H      -1.44967524     -1.35218583     -0.23828254
H      -2.70512359     -0.52201165      0.66370612
H      -0.21550952      0.82982473     -0.51913273
H      -1.46454761      1.64239698      0.40634355
H       0.39383179      1.23160977      1.86659849
H      -0.98509206      0.29733367      2.39988185
H      -0.03726752     -1.77620880      1.54667673
H       1.10494094     -0.97057146      2.59931014
H       2.22093626     -1.94970846      0.66307384
H       1.21445498     -1.05137493     -0.45817943
H       2.19009441      1.09937213      0.36174215
H       3.14637114      0.22075717      1.55734213
H       3.35131431     -0.16526770     -1.47642712
H       4.34083736     -0.98177287     -0.26675362
H       5.20715220      1.27042022      0.50229784
H       4.20874513      2.04540299     -0.72539047
H       5.44916912      0.66526337     -2.50091304
H       6.36329384      1.94601108     -1.68386612
H       7.74746189      0.21057325     -3.02537825
H       8.57401771     -2.12393163     -1.76307424
H       9.50761592     -1.17019670     -2.94645295
H      10.19855874      0.32866890     -0.87910344
H      10.97174867     -1.25426926     -1.07837944
H       8.63067103     -0.95635236      0.47121089
