18
Clc1cc2c(Cl)cccc2c(Cl)c1Cl
Cl      3.93881315     -1.40550690      0.06427959
C       2.43937269     -0.54014762      0.05431274
C       1.26849988     -1.29913210     -0.01640920
C      -0.01253766     -0.70370198     -0.03126615
C      -1.21221718     -1.46176742     -0.10288445
Cl     -1.20501191     -3.19515664     -0.17869507
C      -2.46509132     -0.84737954     -0.11599886
C      -2.55419209      0.53353764     -0.05827288
C      -1.38954899      1.29766097      0.01247956
C      -0.09658591      0.71274564      0.02817021
C       1.11001550      1.47451247      0.10016881
Cl      1.01851808      3.21877241      0.17375297
C       2.37195657      0.85168423      0.11320700
Cl      3.83355910      1.78968005      0.20110773
H       1.36742391     -2.38337922     -0.06078531
H      -3.37342026     -1.44265797     -0.17115727
H      -3.52642160      1.02090233     -0.06797640
H      -1.51313196      2.37933369      0.05596696
