17
CC(C)(C=O)CO
C      -1.06871838     -1.08940009      0.67530110
C      -0.19960564     -0.07589609     -0.07950421
C      -0.76632701      1.33618284      0.11034492
C      -0.19680258     -0.38415408     -1.56976778
O      -0.73328660     -1.36657360     -2.07549076
C       1.25128559     -0.17722402      0.41035010
O       2.05933710      0.83414340     -0.18301332
H      -1.08873048     -0.87155091      1.74891041
H      -0.69172299     -2.11077420      0.54770143
H      -2.10244738     -1.07605066      0.31089559
H      -0.20956020      2.08189273     -0.46826493
H      -0.73616001      1.63501305      1.16388418
H      -1.80874711      1.38856699     -0.22529947
H       0.34648707      0.33807150     -2.20561033
H       1.30190867     -0.04976817      1.49749442
H       1.68738626     -1.15002034      0.15588387
H       2.95570369      0.73754166      0.18618480
