15
CCCOC
C      -2.29191051      0.21329462      0.23117767
C      -0.96844439     -0.34683918      0.72029827
C       0.19592733      0.10560524     -0.15138726
O       1.39527029     -0.46131867      0.37358973
C       2.53225011     -0.08270509     -0.39055881
H      -2.28321703      1.30785562      0.24380434
H      -3.10910290     -0.12725217      0.87466670
H      -2.50398370     -0.11709189     -0.79066763
H      -1.01134173     -1.44250855      0.73673063
H      -0.79351874     -0.03652204      1.75746034
H       0.27375618      1.19895785     -0.14285539
H       0.05170183     -0.23439763     -1.18344666
H       2.65949031      1.00402429     -0.37538103
H       3.41685205     -0.54419471      0.05636783
H       2.43627090     -0.43690770     -1.42144659
