28
CC(c1ccccc1)c1ccccc1
C      -0.24788229     -1.13029907     -2.27949285
C      -0.15304293      0.04998595     -1.30114381
C       1.21349493      0.24697276     -0.64827648
C       2.19150879     -0.75804222     -0.59522669
C       3.42479701     -0.52470112      0.01995687
C       3.69895913      0.71373763      0.59456851
C       2.73953581      1.72114373      0.55763958
C       1.50765643      1.48949361     -0.05719394
C      -1.28737463     -0.03210802     -0.28475553
C      -2.38285443      0.84048704     -0.38376205
C      -3.43448128      0.76976269      0.53202289
C      -3.40642148     -0.17403945      1.55626694
C      -2.32776367     -1.04864504      1.66574998
C      -1.27559837     -0.98035331      0.75073334
H      -0.14819771     -2.09789996     -1.77477045
H      -1.21797646     -1.13227443     -2.79034954
H       0.53083985     -1.06733629     -3.04776293
H      -0.31051085      0.94800179     -1.91712742
H       2.01245519     -1.73955098     -1.02532432
H       4.17147288     -1.31396714      0.05203806
H       4.65756433      0.89186716      1.07402366
H       2.94625739      2.68712481      1.01041150
H       0.76687143      2.28690800     -0.06773390
H      -2.42544154      1.58311086     -1.17726378
H      -4.27605543      1.45194634      0.44558554
H      -4.22434488     -0.22767519      2.26960135
H      -2.30287636     -1.78414903      2.46539383
H      -0.44059084     -1.66950110      0.85556939
