69
CCCCCCCCCCCCCCCCCCCCCC(N)=O
C       9.48374556     -0.61844855     -3.35383953
C       8.37006132      0.31327962     -2.90098432
C       8.04835452      0.20556854     -1.40783123
C       7.43427430     -1.14127181     -1.01780763
C       7.11810940     -1.25872768      0.47748007
C       6.14141627     -0.22310498      1.04639592
C       4.76645521     -0.24804670      0.37396145
C       3.79183567      0.79149493      0.93981554
C       3.34513142      0.49264944      2.37310548
C       2.37926440      1.53948106      2.94010688
C       1.05926492      1.71650514      2.18321161
C       0.21920388      0.43957866      2.11528439
C      -1.13058678      0.69949783      1.43994561
C      -1.97636172     -0.57480940      1.38459631
C      -3.28215765     -0.40967798      0.59978047
C      -4.27512268      0.54691763      1.26528421
C      -5.58586713      0.69915870      0.48443316
C      -6.42998399     -0.57792370      0.46133033
C      -7.83337950     -0.36638232     -0.11756684
C      -7.82505014      0.01040959     -1.60311122
C      -9.23575106      0.12033135     -2.18201597
C      -9.90165868     -1.22114263     -2.41148390
N     -11.20850991     -1.13416604     -2.79680114
O      -9.35610333     -2.30978433     -2.28759791
H      10.39046586     -0.46372691     -2.76084752
H       9.72908565     -0.42661538     -4.40331293
H       9.18974716     -1.66856231     -3.27093539
H       7.46763963      0.11985497     -3.49266611
H       8.67371561      1.34509161     -3.11559550
H       8.95743246      0.38308795     -0.82069460
H       7.34857164      1.01242803     -1.16258355
H       8.13191860     -1.94865165     -1.26863452
H       6.52969186     -1.32367511     -1.60889948
H       8.05695113     -1.19303003      1.04196571
H       6.71669460     -2.26247491      0.66632308
H       6.03137524     -0.43297760      2.11639867
H       6.57381896      0.78138391      0.97404764
H       4.32821667     -1.24981891      0.45884755
H       4.88088041     -0.04041177     -0.69602995
H       4.24695840      1.78803784      0.89131514
H       2.91498074      0.81034951      0.28260605
H       2.89162349     -0.50371389      2.42214820
H       4.21944707      0.46500795      3.03308382
H       2.15552784      1.27359361      3.98098165
H       2.89046728      2.50975320      2.97468797
H       0.48097708      2.49798094      2.69234914
H       1.25181838      2.09067172      1.17136796
H       0.05478757      0.05315189      3.12834738
H       0.75596677     -0.33353111      1.55416937
H      -1.66339891      1.47998599      1.99418954
H      -0.96444057      1.07631018      0.42350016
H      -2.19976324     -0.91566592      2.40291430
H      -1.39156019     -1.37088395      0.90685389
H      -3.73731670     -1.40175179      0.50345729
H      -3.05831978     -0.06356190     -0.41652554
H      -3.82428975      1.54198218      1.35007745
H      -4.49132901      0.20834772      2.28571964
H      -5.35857403      1.02203951     -0.53783715
H      -6.16826500      1.50345854      0.95078860
H      -6.53687531     -0.95539421      1.48576601
H      -5.92081226     -1.35908928     -0.11422201
H      -8.39974758     -1.29417861      0.02441617
H      -8.35424972      0.40932261      0.45695393
H      -7.23774299     -0.72113448     -2.17082435
H      -7.33386883      0.98234005     -1.72598047
H      -9.17853965      0.62032911     -3.15664134
H      -9.87024773      0.73013451     -1.52857625
H     -11.62372612     -0.26608870     -3.10484037
H     -11.67227707     -2.00109145     -3.03727460
