41
OC(c1ccccc1)(c1ccccc1)C1CCNCC1
O      -0.41776598      0.55834982      2.28382985
C      -0.31410265      0.31890437      0.85774403
C      -1.13523682     -0.94467619      0.52794223
C      -1.56574674     -1.20975339     -0.78706496
C      -2.30741073     -2.35458210     -1.08902102
C      -2.63426415     -3.25934734     -0.08337282
C      -2.22085172     -3.01999886      1.22383080
C      -1.47976103     -1.87480883      1.52605548
C      -0.91995560      1.59946910      0.23003997
C      -2.30821516      1.83340262      0.35334196
C      -2.90541296      2.98719113     -0.15892170
C      -2.12671531      3.94778387     -0.79305732
C      -0.75309385      3.75705002     -0.90471549
C      -0.15483760      2.60064034     -0.39122748
C       1.22045380      0.08734507      0.59496151
C       1.85528282     -0.98056447      1.51892638
C       3.36251296     -1.08670644      1.28172581
N       3.67360387     -1.37675976     -0.11652987
C       3.11612253     -0.37099675     -1.01666534
C       1.59883912     -0.26339484     -0.85877063
H      -0.50458226      1.51700172      2.41678355
H      -1.32745547     -0.51900690     -1.59370417
H      -2.62842949     -2.53821809     -2.11090255
H      -3.20935649     -4.15079357     -0.31787256
H      -2.47190665     -3.72448454      2.01226609
H      -1.16569261     -1.71354848      2.55572578
H      -2.94067459      1.10371979      0.85949185
H      -3.97780098      3.13276073     -0.05747632
H      -2.58783844      4.84703909     -1.19249878
H      -0.14042754      4.51367050     -1.38915938
H       0.92317383      2.51703814     -0.48938441
H       1.73485531      1.02207735      0.86287456
H       1.39916627     -1.96161975      1.34081658
H       1.68654832     -0.73185440      2.57259372
H       3.76694237     -1.89023508      1.90701507
H       3.86002138     -0.15973358      1.59227512
H       4.68493114     -1.42067317     -0.23677280
H       3.58790974      0.60285073     -0.83773896
H       3.34881958     -0.65467305     -2.04891688
H       1.22176053      0.48384332     -1.56289198
H       1.15659125     -1.22370814     -1.14881395
