36
CC(=O)N(C)N(C(=O)C(=O)N(C)C)c1ccccc1
C      -0.57339837     -3.10099158      0.74197172
C      -0.28800789     -1.62237043      0.79560419
O       0.22960847     -1.11567198      1.79070961
N      -0.63444206     -0.90324017     -0.33648654
C      -1.17559926     -1.42960527     -1.58259837
N      -0.36347043      0.50010042     -0.36735206
C       0.94056271      0.90960460     -0.71834601
O       1.39397112      2.05029579     -0.77005015
C       1.91327073     -0.21779880     -1.08390680
O       1.76644679     -0.77977989     -2.16688205
N       2.91348735     -0.53097154     -0.16120849
C       3.94911255     -1.47190444     -0.53808567
C       3.12430522      0.21858287      1.06861040
C      -1.42811360      1.40059506     -0.00586560
C      -2.64794766      0.89748839      0.48649246
C      -3.70576293      1.74490468      0.83692204
C      -3.56992140      3.12033431      0.70040867
C      -2.37751527      3.64377138      0.21529707
C      -1.31990148      2.79289167     -0.13349058
H      -1.61667934     -3.28074378      0.47021346
H      -0.40001808     -3.53925736      1.72941055
H       0.09523014     -3.58289674      0.02410961
H      -1.18393018     -0.66674075     -2.36666015
H      -2.19722449     -1.77448417     -1.39921078
H      -0.57320978     -2.28153709     -1.90938224
H       4.11859053     -2.16696350      0.28936011
H       3.67409392     -2.04432723     -1.42781281
H       4.86878620     -0.91657619     -0.74458318
H       2.22752570      0.75157514      1.38849121
H       3.41624222     -0.47433493      1.86324862
H       3.92800589      0.94124231      0.90007871
H      -2.80080043     -0.16784471      0.62867241
H      -4.63156653      1.32562982      1.22241898
H      -4.38708258      3.78248615      0.97331168
H      -2.26060742      4.71919028      0.10401143
H      -0.42404036      3.26934767     -0.51742148
