32
CCC(C)(C)C1CCC(=O)CC1
C      -3.11618084     -0.11565433      1.03477692
C      -1.59686271     -0.11971982      0.88751522
C      -1.05365420      0.07052551     -0.55908447
C      -1.55936844      1.41351783     -1.13765594
C      -1.59879366     -1.04992811     -1.47643255
C       0.52885663      0.05043156     -0.59713615
C       1.14848878     -1.29028577     -0.13635860
C       2.66269263     -1.31600484     -0.31604938
C       3.29921742     -0.12507688      0.35668456
O       4.31163191     -0.23607848      1.04602136
C       2.70332211      1.22259537      0.03306059
C       1.18829517      1.19690841      0.20568039
H      -3.38438484     -0.25613070      2.08745326
H      -3.58058556     -0.92784002      0.46884751
H      -3.55239786      0.83329635      0.71104779
H      -1.20547901      0.67123908      1.53721756
H      -1.23332550     -1.06855529      1.29795695
H      -2.63606609      1.38938098     -1.33892827
H      -1.06253926      1.64561184     -2.08651033
H      -1.38167818      2.24522661     -0.44842731
H      -2.67332199     -0.93856535     -1.65907365
H      -1.45029276     -2.04193398     -1.03800181
H      -1.10540123     -1.03283074     -2.45485154
H       0.81974135      0.19047169     -1.64931260
H       0.91997535     -1.46338315      0.92178382
H       0.73009195     -2.12956027     -0.70000022
H       2.93113111     -1.29282438     -1.37771760
H       3.07218390     -2.23384557      0.11891185
H       3.13955515      1.97566768      0.69780788
H       2.97548405      1.47836729     -0.99662122
H       0.96076161      1.08511454      1.27225304
H       0.79890298      2.16986292     -0.10874442
