20
CC(=O)c1cc(O)c(O)c(O)c1
C       3.11441850     -0.82170593      0.23522629
C       2.23836259      0.38848134      0.04430959
O       2.71636106      1.51972572     -0.01880815
C       0.76143987      0.20655704     -0.07005856
C      -0.03563372      1.35374618     -0.24806588
C      -1.41581786      1.22326697     -0.35863359
O      -2.23523262      2.30306221     -0.53233577
C      -2.00415026     -0.03296930     -0.29365901
O      -3.36045250     -0.17468181     -0.40105314
C      -1.21877287     -1.16412062     -0.11818988
O      -1.80073015     -2.39702902     -0.05482742
C       0.16233555     -1.05952306     -0.00512378
H       3.01836989     -1.49762435     -0.61836056
H       4.15933754     -0.50197781      0.29830761
H       2.85946848     -1.33080219      1.16824438
H       0.43462903      2.33276855     -0.29765592
H      -1.68303630      3.10534747     -0.55814505
H      -3.69064304      0.74066054     -0.51588715
H      -2.75958963     -2.22500756     -0.15616884
H       0.73933645     -1.96817434      0.13103694
