41
O=C1C=CC(=O)N1c1ccc(Cc2ccc(N3C(=O)C=CC3=O)cc2)cc1
O       4.82945316      1.66577196     -2.30960705
C       5.30565221      0.76716922     -1.63643930
C       6.60087262      0.18108985     -1.99816372
C       6.88553035     -0.75974712     -1.10531431
C       5.78268634     -0.81128142     -0.13944141
O       5.81517142     -1.60338600      0.78740516
N       4.85588519      0.12851867     -0.50982092
C       3.62611050      0.39968301      0.16802097
C       2.72953536      1.37680747     -0.29313805
C       1.52259180      1.64366375      0.36934039
C       1.16925282      0.94008647      1.52208615
C      -0.13415561      1.22042778      2.23212928
C      -1.34913530      0.69632477      1.50359203
C      -1.62953813     -0.67076105      1.46979116
C      -2.75375278     -1.15649768      0.78641416
C      -3.63722082     -0.29860837      0.11202799
N      -4.78247611     -0.79632735     -0.58511731
C      -5.68946886     -0.03672950     -1.27775054
O      -5.76695655      1.16477254     -1.47247546
C      -6.69847636     -0.94191128     -1.83844730
C      -6.38120387     -2.17944038     -1.47617095
C      -5.15780226     -2.11216958     -0.66951579
O      -4.66839714     -3.13089927     -0.21117139
C      -3.33796608      1.07274510      0.15466031
C      -2.21493953      1.56395512      0.83650035
C       2.04707537     -0.03687727      1.99365802
C       3.25298001     -0.29961663      1.32721687
H       7.17741720      0.49792627     -2.84921107
H       7.75051263     -1.39689925     -1.05145558
H       2.92745994      1.96530495     -1.18392859
H       0.85926303      2.40671137     -0.03340597
H      -0.11768638      0.78989960      3.24226274
H      -0.22237936      2.30371218      2.38931353
H      -0.97225363     -1.37882775      1.97085958
H      -2.89808635     -2.23251796      0.80537188
H      -7.53025174     -0.60685376     -2.43253842
H      -6.89150926     -3.09886094     -1.70271999
H      -3.96097143      1.81286470     -0.33842659
H      -2.02828435      2.63605186      0.83490713
H       1.80565521     -0.61077370      2.88617876
H       3.87980677     -1.07450038      1.75813553
