37
CCN(CC)CC(=O)OCn1ncc2c(=O)[nH]cnc21
C      -3.05415319     -0.57355618     -3.29497282
C      -2.18983582     -0.50417009     -2.03916658
N      -2.90842662      0.08302752     -0.89460047
C      -3.11936907      1.53070711     -1.05479536
C      -3.90811463      2.17607408      0.08196384
C      -2.27193024     -0.30431136      0.39033651
C      -0.88788334      0.28791540      0.66141154
O      -0.20228724      0.94786277     -0.10794469
O      -0.51670189     -0.03827561      1.93482431
C       0.82918172      0.32808833      2.26675788
N       1.78631687     -0.59986041      1.67847075
N       1.42711270     -1.86709530      1.31929965
C       2.55985675     -2.39254549      0.83339363
C       3.62850001     -1.49393111      0.90823334
C       5.01692843     -1.52884860      0.55667755
O       5.58488643     -2.48969682      0.05298306
N       5.66623950     -0.34430206      0.85724229
C       5.03759798      0.74181294      1.43830174
N       3.78197384      0.79613583      1.76589754
C       3.11712038     -0.35000266      1.47200927
H      -2.53843775     -1.14832700     -4.07146144
H      -4.00851595     -1.06964732     -3.08944576
H      -3.25766884      0.42090021     -3.70496301
H      -1.90377234     -1.53689228     -1.80195111
H      -1.26391404      0.03932497     -2.26302532
H      -3.70172155      1.70632688     -1.96595075
H      -2.17392984      2.06762627     -1.18479314
H      -4.15830353      3.20984239     -0.17971405
H      -4.84623182      1.64109093      0.26697974
H      -3.33220131      2.20738952      1.01169193
H      -2.93381098     -0.02466812      1.21681612
H      -2.18012524     -1.39765255      0.42953387
H       1.06425683      1.35161016      1.95185696
H       0.94344100      0.25137939      3.35208259
H       2.55333157     -3.40655487      0.45485604
H       6.64899415     -0.31175399      0.63248654
H       5.71159705      1.59497713      1.61541169
