54
CC(CC(C)(C)C)CP(=O)(O)CC(C)CC(C)(C)C
C      -3.18414183     -1.84507089      1.33285260
C      -2.80902990     -1.46617276     -0.09874088
C      -2.35682044      0.00113925     -0.25778427
C      -3.37345568      1.15000790      0.00992690
C      -3.56415193      1.41595827      1.51309679
C      -2.78978138      2.44000416     -0.61152540
C      -4.73671419      0.87630975     -0.64178832
C      -1.74290943     -2.43409690     -0.65132583
P      -0.10461884     -2.39586426      0.06637861
O      -0.05006339     -2.23460942      1.55231741
O       0.48612612     -3.84166776     -0.34876517
C       0.90673652     -1.26164060     -0.87940824
C       2.25774555     -0.88517057     -0.24731942
C       3.16280465     -2.11571567     -0.13379541
C       2.94309535      0.22615638     -1.08264389
C       3.59870223      1.38715238     -0.28099167
C       4.29916579      2.32593587     -1.28471098
C       4.64784506      0.87856879      0.71843028
C       2.52973640      2.20112107      0.47120226
H      -3.21701224     -2.93230400      1.46217539
H      -4.18319199     -1.47621317      1.58079952
H      -2.47894694     -1.43729156      2.06251245
H      -3.69880350     -1.62644869     -0.72044449
H      -1.47323157      0.17307004      0.37054710
H      -2.01181517      0.10757220     -1.29611686
H      -4.13818395      2.33560021      1.67824565
H      -4.11221723      0.61560802      2.01334107
H      -2.60035586      1.53535991      2.02028859
H      -3.44854817      3.29913934     -0.44051585
H      -1.81136825      2.67866186     -0.17892318
H      -2.66066995      2.33600156     -1.69490696
H      -5.24843051      0.03046631     -0.17151793
H      -5.39937798      1.74460712     -0.54954509
H      -4.62643141      0.65534919     -1.70924640
H      -2.12524772     -3.45685675     -0.54094152
H      -1.63990601     -2.27423763     -1.73163878
H       0.24362404     -4.54183489      0.29027429
H       1.05586935     -1.66967132     -1.88623012
H       0.32778032     -0.34170489     -1.00559705
H       2.05494399     -0.52878503      0.76727377
H       3.28886537     -2.60679068     -1.10472609
H       4.15626606     -1.85026541      0.23824054
H       2.74566219     -2.84692438      0.56498368
H       2.20910029      0.67518317     -1.76610725
H       3.69966840     -0.23028866     -1.73575843
H       3.58693753      2.72964197     -2.01323425
H       5.08240629      1.79772754     -1.84012439
H       4.76908276      3.17458183     -0.77467930
H       5.15606330      1.71372255      1.21437418
H       5.41424951      0.27912809      0.21502176
H       4.19697825      0.26460107      1.50464646
H       2.04120807      1.61379596      1.25468502
H       1.75167991      2.55847531     -0.21273988
H       2.97308216      3.07897885      0.95540853
