52
CCCCCCCCCCCCN1CC(C(=O)O)CC1=O
C       7.91315501      0.02380930      0.88550751
C       6.95624591     -0.23682218     -0.26692674
C       5.59259181      0.41016808     -0.02032198
C       4.63378852      0.14042427     -1.18202165
C       3.28953843      0.86063031     -1.04212094
C       2.45326561      0.36460071      0.14052924
C       1.07490754      1.03066792      0.15827528
C       0.23485714      0.65809208      1.38374171
C      -0.08702886     -0.83162164      1.53973688
C      -0.80569008     -1.48199542      0.35330257
C      -2.12428666     -0.82519362     -0.06268052
C      -3.18123478     -0.83465371      1.04094742
N      -4.43616877     -0.27065824      0.57546257
C      -5.44059438     -1.05390299     -0.09830836
C      -6.37114843     -0.02183553     -0.70868718
C      -6.03161818      0.21145161     -2.15902829
O      -5.64708006      1.24463222     -2.67671929
O      -6.24459147     -0.88494275     -2.91526088
C      -6.17203464      1.23542101      0.13883357
C      -4.79470682      1.05697977      0.72427295
O      -4.14349514      1.92972475      1.27327037
H       8.88135275     -0.44683864      0.68804825
H       8.07878225      1.09714992      1.02274964
H       7.52081779     -0.38610487      1.82165777
H       6.83671884     -1.31864571     -0.39771647
H       7.39345122      0.15587002     -1.19231210
H       5.71784269      1.49183585      0.11002097
H       5.17358876      0.01628730      0.91233436
H       5.10234459      0.47178523     -2.11712015
H       4.46426358     -0.93881898     -1.27959527
H       2.72297879      0.70848224     -1.96930361
H       3.45913744      1.94027816     -0.94950819
H       2.96818551      0.58290933      1.08249989
H       2.34370205     -0.72319553      0.07044734
H       1.20503049      2.12030804      0.15593846
H       0.53107880      0.78438562     -0.76071353
H       0.76113203      0.99176117      2.28708507
H      -0.69961485      1.23091413      1.35341496
H      -0.69183281     -0.96174766      2.44528255
H       0.84047020     -1.38546019      1.72864059
H      -0.99796757     -2.53331529      0.60234525
H      -0.13468833     -1.49745571     -0.51370328
H      -2.51123533     -1.36301833     -0.93753059
H      -1.94791147      0.20262967     -0.40079893
H      -3.37386747     -1.85225910      1.39770980
H      -2.83960190     -0.23688056      1.89220128
H      -4.96733401     -1.71870078     -0.82676760
H      -5.95423656     -1.65566430      0.65910235
H      -7.41944794     -0.34083035     -0.67995738
H      -6.01474751     -0.59313203     -3.82415617
H      -6.22823922      2.16764627     -0.42847237
H      -6.88882451      1.26484915      0.96637286
