17
CC1(C)NC(=O)NC1=O
C      -0.90467647     -0.48211123     -1.41474990
C      -0.33045747     -0.13373517     -0.04884254
C      -1.33613969     -0.32613904      1.07738145
N       0.89496847     -0.85989209      0.20876281
C       1.97931838     -0.02743312      0.34439677
O       3.11920612     -0.39308149      0.56463131
N       1.56199458      1.25014766      0.19218603
C       0.22266871      1.30156798     -0.04290925
O      -0.42064210      2.32535562     -0.21835938
H      -1.79661291      0.11545052     -1.63304121
H      -1.18030804     -1.54114678     -1.46746756
H      -0.17946328     -0.29017747     -2.21430937
H      -2.23694134      0.27462804      0.91029743
H      -0.91673375     -0.02365755      2.04416563
H      -1.63564333     -1.37654481      1.16254686
H       0.99236291     -1.86392183      0.28846463
H       2.16709921      2.05069077      0.24684629
