33
N#Cc1c(N)nc2nc(C3CCCC3)ncc2c1N
N      -6.34557148     -1.17545518     -0.79700576
C      -5.27130999     -0.82209195     -0.53267509
C      -3.92989557     -0.42056648     -0.23903020
C      -3.69180606      0.72697746      0.51024346
N      -4.71467093      1.50444009      1.05181943
N      -2.45361635      1.15083186      0.81617707
C      -1.38890867      0.49455062      0.36083331
N      -0.20133508      1.00443400      0.66240173
C       0.89882312      0.39382577      0.19837393
C       2.23340308      0.98768686      0.57847171
C       2.99555702      0.08860815      1.56915393
C       4.43046750      0.05925664      1.06143063
C       4.27095033      0.13911289     -0.44708620
C       3.17510653      1.18234150     -0.62391005
N       0.88193322     -0.71299203     -0.55680859
C      -0.33233172     -1.20975623     -0.84648927
C      -1.53207365     -0.66200246     -0.40472361
C      -2.83043110     -1.17782283     -0.67168534
N      -3.00000078     -2.29600490     -1.52244253
H      -4.28339990      2.29740984      1.52488585
H      -5.40356598      1.80673150      0.37051189
H       2.05521149      1.96836758      1.03962116
H       2.93923247      0.47383749      2.59270561
H       2.59531525     -0.93278265      1.58726376
H       4.96299884     -0.84228890      1.37853554
H       4.98050594      0.93177434      1.43155337
H       5.19885562      0.42011481     -0.95290955
H       3.94176385     -0.82833167     -0.84502248
H       2.68405643      1.09972626     -1.59821489
H       3.62443565      2.18171020     -0.56986975
H      -0.30388298     -2.09467141     -1.47423023
H      -3.91870289     -2.73867000     -1.49406775
H      -2.26711322     -2.99830116     -1.47666720
