15
O=C(O)c1ccc(Cl)cc1Cl
O       2.82297487      0.92936646     -0.71539333
C       2.11793552      0.05593178     -0.25286637
O       2.64533638     -1.10171030      0.18975593
C       0.64579777      0.07223743     -0.08930729
C      -0.06840956     -1.12724932     -0.25970208
C      -1.46006786     -1.14563014     -0.14229602
C      -2.14302862      0.03314776      0.14445471
Cl     -3.85661807      0.01190330      0.28950967
C      -1.44829088      1.22837390      0.31830236
C      -0.05262725      1.25197780      0.20221595
Cl      0.72519694      2.76887425      0.48325177
H       3.60990998     -0.98657791      0.05135709
H       0.45552570     -2.05297020     -0.49145949
H      -2.00148875     -2.07913577     -0.27720008
H      -1.99214617      2.14146096      0.54937717
