52
CC12CC(O)C3C(CCC4CC(O)CCC43C)C1CCC2=O
C      -3.24425969     -0.10602231      2.06545225
C      -2.97780543     -0.45543449      0.59899064
C      -2.16856046     -1.75773077      0.43672056
C      -0.65199110     -1.58728141      0.58726183
O      -0.34196772     -1.25408992      1.93484017
C      -0.12166587     -0.49948044     -0.37350975
C      -0.83836585      0.84315148     -0.04200260
C      -0.25833466      1.99995545     -0.85717649
C       1.22283008      2.22828568     -0.54898085
C       1.90870888      1.02432250      0.12111948
C       3.43309625      1.22336096      0.13082747
C       4.15453218      0.06627407      0.81649337
O       5.56220251      0.23628508      0.68385768
C       3.76873022     -1.27792250      0.21142809
C       2.25307122     -1.48179158      0.21346848
C       1.46081331     -0.33995642     -0.48618890
C       1.81248367     -0.40102735     -2.00368981
C      -2.37220586      0.74666929     -0.16751428
C      -2.91789567      0.60272459     -1.59433220
C      -4.37177046      0.19398390     -1.39840440
C      -4.30275391     -0.62657648     -0.13662082
O      -5.21558079     -1.34875258      0.24683877
H      -3.96731507      0.71383988      2.15093482
H      -3.66946308     -0.95987994      2.60488223
H      -2.33391436      0.20367865      2.58612196
H      -2.36358491     -2.19503235     -0.55223933
H      -2.52678127     -2.49783887      1.16441683
H      -0.18185508     -2.55066148      0.36283594
H      -0.64128758     -1.99047810      2.49676697
H      -0.46163342     -0.81430793     -1.36927280
H      -0.64667085      1.08124606      1.01401035
H      -0.81060401      2.92632402     -0.65728916
H      -0.37874232      1.80160865     -1.92868165
H       1.73835359      2.50860096     -1.47598973
H       1.31819644      3.09543803      0.11754198
H       1.60102915      1.02226013      1.17772632
H       3.82157236      1.35370580     -0.88693148
H       3.68323532      2.15750094      0.65085630
H       3.91905598      0.06391043      1.88756979
H       5.79312086      1.08506176      1.09852840
H       4.17532048     -1.36972059     -0.80267971
H       4.24809335     -2.08335022      0.78223975
H       2.02881991     -2.44626288     -0.25798676
H       1.95181079     -1.56192419      1.26286817
H       1.24361856      0.32630306     -2.59013954
H       1.58119467     -1.39234091     -2.41176239
H       2.87014738     -0.20994953     -2.20295834
H      -2.79585825      1.67787793      0.23951205
H      -2.84375330      1.53467997     -2.16347784
H      -2.39008897     -0.17373051     -2.15773986
H      -5.01200894      1.06301139     -1.22219463
H      -4.74331829     -0.39851690     -2.23713400
