19
COC(=O)C(N)CO.[Cl-].[H+]
C       2.83383329     -0.60970382      0.24805878
O       1.42530232     -0.79295353      0.23610382
C       0.59473591      0.26389270      0.53508067
O       1.08832897      1.37583150      0.81452233
C      -0.87263676      0.11333797      0.53321950
N      -1.33347011     -1.18628474      0.20370192
C      -1.42081627      1.06452135     -0.53902707
O      -2.78833679      1.06416507     -0.58379432
Cl      0.00000000      0.00000000      0.00000000
H       0.00000000      0.00000000      0.00000000
H       3.30166251     -1.58653057      0.47289521
H       3.12511802      0.14483216      0.99326615
H       3.10901570     -0.24525203     -0.77022091
H      -1.24964153      0.38131411      1.53899106
H      -0.73220462     -1.74493788     -0.40711635
H      -1.83337489     -1.69833643      0.94039017
H      -0.96918227      0.69971319     -1.49799729
H      -1.03877183      2.08049625     -0.28061675
H      -3.23956163      0.67589470      0.19605560
