54
C#Cc1cccc(Nc2ncnc3cc(OCCOC)c(OCCOC)cc23)c1.Cl
C       7.44311403      2.68079364     -2.82288092
C       6.86093976      1.79828352     -2.24498379
C       6.16735768      0.74528750     -1.52711541
C       6.82687370     -0.39829514     -1.14679443
C       6.20097920     -1.41253327     -0.46666959
C       4.83985444     -1.29561915     -0.13925708
C       4.17528263     -0.16976775     -0.51054875
N       2.79418152     -0.00560236     -0.23996498
C       1.92481580     -1.09536404     -0.17325133
N       2.34411052     -2.36275117     -0.43545207
C       1.56246088     -3.44363842     -0.42190034
N       0.26432826     -3.28058904     -0.12913990
C      -0.23539240     -2.03957569      0.14626327
C      -1.57629079     -1.88232376      0.44803515
C      -2.10747653     -0.64960687      0.72927065
O      -3.45799930     -0.47741496      1.03508384
C      -4.26872269     -1.64262829      1.04339437
C      -5.68871029     -1.34881416      1.38046397
O      -6.44819125     -2.49806481      1.37357822
C      -6.07294839     -3.47485995      2.26011077
C      -1.30040682      0.51031576      0.72098254
O      -1.89843368      1.68881206      1.00407316
C      -1.37317729      2.96100817      1.02208324
C      -0.90537222      3.48713557     -0.30627916
O      -1.96284487      3.51301066     -1.20064629
C      -2.96612444      4.32271804     -0.75157187
C       0.04240140      0.29861766      0.41243555
C       0.57938711     -0.92940443      0.12992126
C       4.84313901      0.85026331     -1.20484180
Cl      0.69014422      0.00000000      0.00000000
H       7.95363444      3.46879766     -3.34025990
H       7.87371804     -0.47654669     -1.40439085
H       6.70238940     -2.31263114     -0.16232315
H       4.35375987     -2.07136757      0.40776448
H       2.50535012      0.99459093     -0.09891721
H       1.98261798     -4.43732245     -0.64653295
H      -2.21331716     -2.77237763      0.45811574
H      -3.87964369     -2.38029794      1.80193333
H      -4.16437812     -2.11901807      0.05360019
H      -6.16005385     -0.61232832      0.69131157
H      -5.77043899     -0.89029631      2.41007192
H      -6.79138522     -4.35039403      2.16515833
H      -6.04418192     -3.14349638      3.31658246
H      -5.07521849     -3.94588936      2.01244353
H      -2.02671519      3.70237936      1.55441390
H      -0.42467430      2.99986402      1.67970781
H      -0.09791013      2.88803148     -0.71969763
H      -0.48578779      4.54288439     -0.17256869
H      -3.77105064      4.30346180     -1.54811224
H      -3.43801214      3.94446123      0.18985040
H      -2.59123502      5.34216052     -0.58355091
H       0.67617373      1.14743899      0.42606567
H       4.27922411      1.72850295     -1.48069504
H      -0.69014422      0.00000000      0.00000000
