49
COc1cc([C@@H]2c3cc4c(c(O)c3C[C@H]3COC(=O)[C@@H]32)OCO4)cc(OC)c1O
C      -1.81968905      2.11093027     -2.84619043
O      -2.89373386      1.51164318     -2.13665183
C      -2.58376699      0.76283911     -1.03265151
C      -1.28735923      0.43808640     -0.62035933
C      -1.05681761     -0.33562100      0.53591084
C       0.35001489     -0.70810754      1.01293092
C       1.40873489      0.35861496      0.67801967
C       1.39624875      1.56680339      1.40627627
C       2.33009239      2.53085438      1.09441983
C       3.25889357      2.34110879      0.10421205
C       3.30298659      1.17422744     -0.62971053
O       4.24618420      1.00927513     -1.60095055
C       2.37248376      0.16044621     -0.36494231
C       2.45224601     -1.13585669     -1.15663806
C       1.21718407     -1.99381558     -0.95284007
C       1.32176205     -3.45667581     -1.29582308
O       0.27301172     -4.06417393     -0.52341280
C      -0.01509508     -3.26839447      0.55896416
O      -0.79940484     -3.56678804      1.44358660
C       0.86775640     -2.05777445      0.51793974
O       4.09204576      3.40764520     -0.04635712
C       3.57039501      4.29629291      0.96695023
O       2.45506467      3.74332223      1.69595795
C      -2.16701621     -0.78704477      1.27468909
C      -3.46755319     -0.49554020      0.86446276
O      -4.61747375     -0.90141026      1.49526910
C      -4.46760895     -1.90659905      2.49331346
C      -3.66118744      0.28605527     -0.28101955
O      -4.94698336      0.58107285     -0.66859494
H      -1.18142613      1.35084436     -3.30852096
H      -2.24698699      2.71844827     -3.64979707
H      -1.23803068      2.77669906     -2.19978616
H      -0.43644360      0.78696479     -1.19610148
H       0.31098592     -0.76501892      2.11114665
H       0.66740466      1.74737138      2.19102092
H       4.77850080      1.82788622     -1.60544677
H       2.56182624     -0.92012755     -2.22603536
H       3.34965166     -1.67651999     -0.83042411
H       0.38154197     -1.57689997     -1.52974703
H       2.27660750     -3.90857824     -1.00654478
H       1.14454983     -3.64371325     -2.35890024
H       1.76238649     -2.32950101      1.10086178
H       3.24823074      5.22622567      0.48434560
H       4.37349458      4.52731826      1.67620777
H      -1.99103538     -1.37632613      2.17066589
H      -5.46930281     -2.21238785      2.81036819
H      -3.95925206     -2.79174625      2.09615279
H      -3.94788292     -1.51008651      3.37144202
H      -5.51623499      0.14773172     -0.00540156
