21
CCOP(=O)([O-])C(N)=O.[NH4+]
C      -2.64218022     -0.42177500     -0.36252054
C      -1.47152846      0.00181754      0.50117785
O      -0.59254204      0.78607006     -0.28336078
P       0.87846528      1.08616536      0.36225780
O       0.71822433      1.31257665      1.85298127
O       1.54670206      2.15282994     -0.49634864
C       1.85977482     -0.52645196      0.02434280
N       2.95612814     -0.38699384     -0.80001486
O       1.52583447     -1.60123496      0.51863124
N      -0.00000005      0.00000002     -0.00000016
H      -3.16375150      0.45398811     -0.76268155
H      -3.35242232     -1.02414976      0.21072924
H      -2.29552519     -1.00615418     -1.22127874
H      -0.95661467     -0.88215113      0.88726675
H      -1.82961926      0.59976603      1.34508108
H       3.63619654     -1.12436434     -0.85000279
H       3.18285803      0.58006149     -1.03135702
H       0.13032797     -0.30244426      0.97251079
H      -0.11253515      1.02016191     -0.02900118
H      -0.83830622     -0.44798053     -0.38832002
H       0.82051345     -0.26973713     -0.55518943
