50
CCO[Si](CC(C)CC(C)(C)C)(OCC)OCC
C      -4.01108357     -0.80804317     -3.14213201
C      -3.55050795     -0.29040185     -1.79113234
O      -2.27950240     -0.86409670     -1.50775310
Si     -1.57545668     -0.54783374     -0.02927304
C       0.27839825     -0.98907260     -0.06114287
C       1.21145180     -0.04811310     -0.86052190
C       1.01702309     -0.23119363     -2.37351866
C       2.69082598     -0.32457303     -0.47689942
C       3.58565588      0.92646460     -0.24038572
C       3.09848821      1.72215631      0.98462517
C       5.02210127      0.44050013      0.04246318
C       3.62097564      1.85065122     -1.46644765
O      -1.78053036      1.06997101      0.32513850
C      -1.48159689      1.52484761      1.63938020
C      -1.64597819      3.03387615      1.66589159
O      -2.37183597     -1.44392531      1.13236819
C      -2.51996110     -2.84494308      0.93288507
C      -3.25302097     -3.41822280      2.13258249
H      -4.08351067     -1.90064684     -3.13173797
H      -4.98704596     -0.39185001     -3.40705106
H      -3.28995145     -0.54335031     -3.92255932
H      -3.47611182      0.80320341     -1.83162593
H      -4.28507099     -0.57482159     -1.02730120
H       0.38623926     -2.02059687     -0.41690331
H       0.58510263     -0.98451285      0.99227738
H       0.95228493      0.98695085     -0.61531470
H       1.15705896     -1.27722386     -2.66729653
H       0.01585662      0.07700891     -2.68847796
H       1.72919993      0.37278865     -2.94294469
H       3.15275045     -0.95335082     -1.25055434
H       2.72669400     -0.92906967      0.43969789
H       3.78501127      2.54455744      1.21704446
H       2.11059749      2.16414530      0.82269131
H       3.03690261      1.08212313      1.87188509
H       5.05355105     -0.21271120      0.92186185
H       5.42361214     -0.12303786     -0.80730045
H       5.69747045      1.28288724      0.23060616
H       2.63984175      2.28937271     -1.67419964
H       3.94770150      1.30795274     -2.36021540
H       4.31880524      2.68192119     -1.31240552
H      -0.45000160      1.27257884      1.91458403
H      -2.16903748      1.07341524      2.36507957
H      -1.42909520      3.43221026      2.66097282
H      -2.66655616      3.31573212      1.38656470
H      -0.97431895      3.50688580      0.94173605
H      -3.10319565     -3.04611430      0.02594166
H      -1.53924358     -3.32841714      0.84567927
H      -2.69523571     -3.22310543      3.05450805
H      -3.39167132     -4.49767261      2.02540516
H      -4.23407977     -2.94530046      2.24683549
