14
S=c1[nH]cnc2[nH]cnc12
S      -1.46709041      2.76323301     -0.47157625
C      -1.03748433      1.16715118     -0.39494502
N      -1.83558748      0.13108103     -0.84980288
C      -1.45036312     -1.19968331     -0.77324424
N      -0.32680588     -1.63151598     -0.28054273
C       0.45936642     -0.62396796      0.16649758
N       1.69020565     -0.76574516      0.73211895
C       2.13876566      0.49292554      1.04058792
N       1.26906169      1.42528925      0.70591682
C       0.21865767      0.73328462      0.15971825
H      -2.72964959      0.37866463     -1.24936698
H      -2.20162600     -1.89579445     -1.17960490
H       2.17140944     -1.63872934      0.88940140
H       3.10114027      0.66380694      1.50484208
