27
CC(=O)CC(C)=Nc1ccccc1O
C      -2.10443075      1.66920461     -1.10996428
C      -2.12638631      0.33071153     -0.42199977
O      -2.74829879     -0.62133759     -0.89400426
C      -1.40313780      0.23075196      0.89902052
C      -0.81013541     -1.14400955      1.13494782
C      -1.70883695     -2.17912750      1.77210911
N       0.39289879     -1.51695061      0.80424382
C       1.27740218     -0.59805401      0.21640569
C       2.17570218      0.12177508      1.00637650
C       3.05185757      1.03925869      0.41942029
C       3.04180859      1.23243518     -0.96386469
C       2.16514894      0.50163474     -1.76501716
C       1.30218637     -0.41181344     -1.17147166
O       0.46310591     -1.12968861     -1.97850788
H      -2.64498107      1.60506527     -2.05833406
H      -2.58817647      2.41455103     -0.47406972
H      -1.07148900      1.96084824     -1.31492199
H      -2.12376916      0.45389639      1.69307254
H      -0.62548940      0.99698775      0.95028198
H      -2.55854548     -2.38469754      1.11688777
H      -1.16188391     -3.10985651      1.94688501
H      -2.07646714     -1.79935025      2.72919254
H       2.19436634     -0.03560873      2.08104442
H       3.74844360      1.59709280      1.04041625
H       3.72779519      1.94228579     -1.41948128
H       2.16219196      0.63200330     -2.84307009
H       0.04912003     -1.79800802     -1.39559745
