30
Cc1cnc(NS(=O)(=O)c2ccc(N)cc2)nc1
C       4.61037341      1.77560336      0.15315125
C       3.54046798      0.74105883      0.09962331
C       3.78078498     -0.55558340     -0.30765206
N       2.82637819     -1.50208781     -0.39784658
C       1.60083187     -1.11627523     -0.03102440
N       0.62728815     -2.07326829     -0.28462410
S      -0.62751283     -2.19696852      0.79408639
O      -0.15819840     -1.94006913      2.13944782
O      -1.29116866     -3.44978590      0.48671866
C      -1.74550482     -0.90840586      0.30174234
C      -1.93594930      0.20580608      1.12002220
C      -2.83869930      1.19863266      0.72974230
C      -3.59019913      1.06257870     -0.44233667
N      -4.40259913      2.11411825     -0.88276157
C      -3.35270386     -0.03744410     -1.27339409
C      -2.45271184     -1.03739621     -0.89559587
N       1.22854735      0.11701727      0.30994757
C       2.22011968      1.02431042      0.38316326
H       4.39384085      2.52216022      0.92453142
H       5.57758714      1.32507903      0.39967584
H       4.69417001      2.28216011     -0.81327147
H       4.77775105     -0.88462686     -0.58950095
H       1.00843516     -2.96563045     -0.57416703
H      -1.37346760      0.31949237      2.04362604
H      -2.95217052      2.08170180      1.35307096
H      -5.12719608      1.82682263     -1.53328919
H      -4.76806473      2.69090317     -0.13142375
H      -3.87317930     -0.12727166     -2.22336711
H      -2.30159048     -1.90076942     -1.53870143
H       1.90434012      2.02104086      0.68040693
