46
CCCCCCCOC(=O)N=NC(=O)OCCCCC
C      -7.05221767     -0.36780731      2.09618159
C      -7.58296888     -0.00313382      0.71786096
C      -7.17173442     -0.99096498     -0.37704012
C      -5.66390419     -1.16122908     -0.58653072
C      -4.95703752      0.13035457     -1.00337525
C      -3.47159898     -0.11440037     -1.26460317
C      -2.76292033      1.15701303     -1.72243549
O      -1.37527530      0.88238994     -1.96204106
C      -0.54907394      1.00198550     -0.88268966
O      -0.93102825      1.32586312      0.23678543
N       0.73714727      0.69178290     -1.26046053
N       1.57668518      1.02888073     -0.39323454
C       2.85899339      0.66803754     -0.73737239
O       3.20157881     -0.02967653     -1.68619746
O       3.72994497      1.19997940      0.16677805
C       5.11899746      0.90070880     -0.04056124
C       5.47816986     -0.39771808      0.67826288
C       6.92639575     -0.83959066      0.46495200
C       7.95203898      0.14343567      1.03145951
C       9.36696170     -0.40356868      0.91745240
H      -7.34095754     -1.38788327      2.37132557
H      -7.46069489      0.31485950      2.84812247
H      -5.96147945     -0.29244713      2.13979755
H      -8.67890414      0.02285642      0.76208353
H      -7.26210124      1.01171670      0.45867615
H      -7.59990683     -1.97416319     -0.14493388
H      -7.62920049     -0.67182715     -1.32231525
H      -5.51458663     -1.91599549     -1.36900839
H      -5.20044384     -1.56519561      0.32154163
H      -5.05929341      0.88735005     -0.21773958
H      -5.42974718      0.53197257     -1.90757401
H      -2.99218760     -0.50121542     -0.35807928
H      -3.34102283     -0.89244164     -2.02709283
H      -2.88911193      1.97702183     -1.00571936
H      -3.18652099      1.49851480     -2.67359398
H       5.36318010      0.85780698     -1.10852017
H       5.68038209      1.74022695      0.38254615
H       5.27199416     -0.28757464      1.75075394
H       4.81162187     -1.19912565      0.33375229
H       7.06011037     -1.81670013      0.94616940
H       7.10998394     -0.98782222     -0.60690593
H       7.73057002      0.35092618      2.08445240
H       7.90133839      1.09538834      0.49260816
H       9.62251138     -0.61755168     -0.12558464
H       9.47867004     -1.32703012      1.49570234
H      10.08664275      0.32599137      1.30080696
