21
CN1C(=O)COc2ccccc21
C      -1.64353647      1.90827053      0.39685590
N      -1.21399525      0.55393824      0.09711367
C      -2.16940089     -0.41817728     -0.16550222
O      -3.38180577     -0.20268781     -0.19073139
C      -1.61810265     -1.83001276     -0.33387411
O      -0.30856117     -2.00236166     -0.83693172
C       0.56425099     -1.03932248     -0.41184444
C       1.91750855     -1.37090562     -0.51840310
C       2.89524780     -0.45273662     -0.14479539
C       2.51845291      0.80225467      0.32386480
C       1.16434543      1.14147690      0.41490734
C       0.16829459      0.22465839      0.04755735
H      -2.72931418      2.01549744      0.32069161
H      -1.35100932      2.16241746      1.42043681
H      -1.18574627      2.60384000     -0.31359209
H      -1.68722334     -2.33200315      0.63907716
H      -2.28955220     -2.35749752     -1.02083089
H       2.20668324     -2.34911026     -0.89404806
H       3.94716348     -0.71472628     -0.22389920
H       3.27882872      1.52348680      0.61415891
H       0.91747177      2.13370101      0.77978907
