26
CCC(=O)Nc1ccc(O)c(C(=O)O)c1
C       4.81870727      0.07243109      0.48277848
C       3.48285250      0.76440141      0.27625459
C       2.31965360     -0.21430521      0.21653923
O       2.47691633     -1.42404224      0.32656009
N       1.11533860      0.44705791      0.02749946
C      -0.17098626     -0.12186415     -0.07753362
C      -0.42935440     -1.49103945     -0.00329964
C      -1.73703305     -1.97441578     -0.11729196
C      -2.79793421     -1.09369622     -0.30646830
O      -4.03764442     -1.66159557     -0.40620610
C      -2.56145429      0.28212183     -0.38372953
C      -3.62676086      1.29345665     -0.58333565
O      -3.46374326      2.49726355     -0.65599498
O      -4.85845515      0.75325259     -0.68425492
C      -1.24433718      0.75876326     -0.26813771
H       4.82762536     -0.49344898      1.42021297
H       5.02971044     -0.62664745     -0.33321789
H       5.62751009      0.80863393      0.52006874
H       3.30551067      1.46531355      1.09979246
H       3.50845646      1.33155149     -0.66109697
H       1.16318659      1.45627340     -0.04365135
H       0.36448973     -2.21734187      0.14336752
H      -1.92324557     -3.04416326     -0.05748830
H      -4.68660295     -0.93829385     -0.53594691
H      -5.43655819      1.53954220     -0.81061310
H      -1.06584785      1.83079117     -0.32900462
