22
Clc1cccc(-c2ccc(Cl)c(Cl)c2Cl)c1
Cl     -3.94082863      1.15200760     -2.06515083
C      -2.94838901      0.34727934     -0.91228622
C      -3.53202740     -0.48453080      0.04036511
C      -2.72759539     -1.13363469      0.97538887
C      -1.34322794     -0.94766705      0.95376113
C      -0.74463145     -0.11334135     -0.00461646
C       0.71200075      0.08755249     -0.02102994
C       1.23559937      1.22590710      0.61531550
C       2.60811315      1.46901570      0.63485261
C       3.48667076      0.57748330      0.01717091
Cl      5.17306570      0.95860480      0.09271858
C       2.99644990     -0.56748217     -0.62820369
Cl      4.10036988     -1.67089974     -1.39501303
C       1.60801595     -0.81034985     -0.64691312
Cl      0.97224419     -2.21982010     -1.45094114
C      -1.56631657      0.53624111     -0.93874933
H      -4.60856554     -0.63225230      0.05814260
H      -3.17687959     -1.78680435      1.71956236
H      -0.72955888     -1.46488925      1.68954160
H       0.56661799      1.93325060      1.10555580
H       2.98621496      2.35806367      1.13580722
H      -1.12734219      1.18626594     -1.69233976
