12
O=C(O)CCS
O       1.45372953     -1.87980864     -0.31993453
C       1.21616551     -0.79516232      0.18331908
O       1.91186900     -0.36792478      1.25433587
C       0.22042821      0.22138193     -0.29799727
C      -1.07821384     -0.42769658     -0.75117658
S      -2.08979353     -0.99395447      0.65398879
H       2.51669897     -1.11247987      1.45785135
H       0.68708822      0.74600262     -1.13967101
H       0.03229544      0.96611483      0.48411721
H      -1.67485380      0.29908114     -1.31170434
H      -0.89146862     -1.28307148     -1.40817103
H      -2.30394509      0.21476269      1.19504247
