47
COP(=S)(OC)Oc1ccc(Sc2ccc(OP(=S)(OC)OC)cc2)cc1
C       6.51773492      2.75076701     -0.43937260
O       6.91814379      1.50345890      0.09349904
P       5.85093414      0.67522459      0.99293686
S       5.31038362      1.53904268      2.64231060
O       6.62199899     -0.73847985      1.17521350
C       7.22835161     -1.34069486      0.04947214
O       4.70457207      0.33781055     -0.09417379
C       3.64085319     -0.49995939      0.08278206
C       2.68672712     -0.48404235     -0.93571987
C       1.55559592     -1.29973113     -0.85693227
C       1.36813241     -2.13601132      0.24668780
S      -0.07119326     -3.18094589      0.38113608
C      -1.39255373     -1.98366951      0.34022950
C      -2.42890615     -2.13820380     -0.58583729
C      -3.48113156     -1.21638311     -0.64047069
C      -3.50146076     -0.13369535      0.23373920
O      -4.47394396      0.82379241      0.26520846
P      -5.69124633      0.99114334     -0.78513002
S      -5.24534624      1.42515530     -2.62639513
O      -6.54825654     -0.36212209     -0.53880862
C      -7.83454547     -0.45839405     -1.11892546
O      -6.61681343      2.07734856     -0.01348915
C      -6.12887487      3.39799426      0.12436793
C      -2.47943194      0.01518982      1.17252938
C      -1.43112355     -0.90629328      1.22922250
C       2.33807996     -2.16389083      1.25402272
C       3.47242178     -1.34792432      1.17420381
H       6.38065090      3.48368627      0.35982505
H       5.59296527      2.64451549     -1.01190543
H       7.30058771      3.10880755     -1.11238721
H       7.42770524     -2.39159879      0.28202814
H       8.17731660     -0.84372684     -0.16793674
H       6.57437125     -1.29570919     -0.82572072
H       2.81752235      0.16731593     -1.79623373
H       0.82285486     -1.27096658     -1.66030888
H      -2.42713531     -2.97844086     -1.27723280
H      -4.26376317     -1.38119916     -1.37397210
H      -8.42106889      0.44335307     -0.92296209
H      -7.75040261     -0.62080023     -2.19798728
H      -8.35409800     -1.31378054     -0.67604150
H      -5.03945335      3.41552499      0.21909522
H      -6.56642121      3.83880461      1.02529188
H      -6.43407185      3.99050538     -0.74245974
H      -2.49376756      0.85182540      1.86694622
H      -0.64836335     -0.77118337      1.97178243
H       2.21662069     -2.81773838      2.11551837
H       4.19884871     -1.40568104      1.97936459
