32
CC(C)NCC(O)c1ccc(O)c(O)c1
C      -3.67607438     -0.45617173     -1.22618899
C      -3.29567925      0.73819836     -0.34973149
C      -2.89445148      1.94552610     -1.19837366
N      -2.29877999      0.38150725      0.67370568
C      -0.94774611      0.09853920      0.14480867
C      -0.07393593     -0.60352536      1.21397643
O      -0.16602756      0.11320676      2.45158120
C       1.37042868     -0.71274409      0.76958542
C       1.75251975     -1.75210099     -0.10115104
C       3.07107225     -1.86334036     -0.54894742
C       4.00915368     -0.93535729     -0.12633163
O       5.29850766     -1.04254726     -0.56276196
C       3.65060855      0.09719399      0.73464449
O       4.62678704      0.97590427      1.11741044
C       2.33928277      0.21854432      1.18212603
H      -4.54233152     -0.20850445     -1.84983053
H      -3.95005591     -1.32144182     -0.61262130
H      -2.86490887     -0.75522166     -1.89725884
H      -4.20128481      1.01995837      0.20262429
H      -2.62728816      2.79868922     -0.56539784
H      -2.04459702      1.72333064     -1.85220277
H      -3.72877025      2.25700185     -1.83650529
H      -2.20906153      1.17947755      1.30755306
H      -0.47927706      1.04804279     -0.14283433
H      -0.98497891     -0.53765126     -0.74544363
H      -0.46010705     -1.61189101      1.41106470
H      -1.10475782      0.03079271      2.70186951
H       1.02129352     -2.48538411     -0.43593951
H       3.36281032     -2.66631535     -1.21875632
H       5.76119616     -0.29555742     -0.13326491
H       4.23135280      1.59694066      1.75370654
H       2.05510042      1.02490012      1.85254443
