66
CC(C)CCCCCOC(=O)c1ccccc1C(=O)OCCCCCC(C)C
C       7.35811250     -0.83063754      1.36693138
C       6.26968167     -0.50186702      2.38898655
C       5.89486403     -1.76400840      3.17123078
C       5.01025766      0.10480384      1.73692894
C       5.28105473      1.44372178      1.03917856
C       4.01155041      2.20835676      0.65437239
C       3.08813684      1.44662102     -0.29666677
C       1.96378159      2.35339094     -0.79512295
O       1.01777059      1.61790896     -1.58381490
C       1.33890724      1.43580709     -2.88774839
O       2.35073500      1.82444830     -3.44831820
C       0.20105267      0.80847578     -3.59991282
C      -0.05174891      1.24274468     -4.91032936
C      -1.15160619      0.75089975     -5.61782187
C      -2.00531662     -0.18022536     -5.02656561
C      -1.75196330     -0.63588745     -3.73296493
C      -0.64498791     -0.14673772     -3.02467133
C      -0.36737155     -0.71043879     -1.69641380
O       0.61752653     -1.37805801     -1.43332057
O      -1.36749773     -0.33194625     -0.86642906
C      -1.21419148     -0.73303549      0.50030265
C      -1.84097049      0.32054060      1.41127040
C      -3.27203153      0.72984583      1.04739927
C      -4.26697985     -0.43344970      1.07871478
C      -5.69567596      0.05919026      0.81779102
C      -6.78825387     -1.02687166      0.85590725
C      -6.57439513     -2.10945037     -0.20240279
C      -6.93467972     -1.65412858      2.24344224
H       6.98289593     -1.51789097      0.60124785
H       7.72474524      0.07430201      0.86942410
H       8.22201326     -1.30334159      1.85176773
H       6.68074607      0.22591392      3.10041371
H       5.13282609     -1.54155596      3.92582619
H       6.76747935     -2.17562099      3.68992537
H       5.49706392     -2.54078351      2.50831476
H       4.24819487      0.25403903      2.51465868
H       4.59346630     -0.60971246      1.01753908
H       5.87583510      2.08576329      1.70067195
H       5.88333999      1.27663512      0.13784649
H       4.31582422      3.15268714      0.18553965
H       3.45521075      2.47872362      1.55979774
H       3.65823101      1.05589318     -1.14787285
H       2.64858626      0.57417914      0.20227833
H       2.35221632      3.21338502     -1.35785313
H       1.40555848      2.75789947      0.05842705
H       0.60311961      1.97871359     -5.37662821
H      -1.34536861      1.09938373     -6.63019526
H      -2.86421633     -0.55584577     -5.57627268
H      -2.40861080     -1.37782744     -3.28357517
H      -1.70608078     -1.70257166      0.63021461
H      -0.15887630     -0.84237644      0.77395462
H      -1.22142703      1.22666193      1.36818478
H      -1.80606389     -0.03864850      2.44697366
H      -3.59371309      1.49884134      1.75934932
H      -3.28610139      1.19950213      0.05745487
H      -4.20696743     -0.92621790      2.05471448
H      -3.99018607     -1.16964715      0.31788034
H      -5.94790793      0.83208553      1.55542940
H      -5.72751180      0.55063379     -0.16302666
H      -7.73853346     -0.52614277      0.62406213
H      -7.42897247     -2.79319452     -0.22825958
H      -5.68166055     -2.70794987      0.00116237
H      -6.47145603     -1.66755582     -1.19818286
H      -6.04822831     -2.23105060      2.52621089
H      -7.09856595     -0.88432715      3.00585680
H      -7.79266573     -2.33299514      2.26865431
