32
CC(=O)NC(Cc1c[nH]c2ccccc12)C(=O)O
C      -3.35577443     -1.70880852      0.29711433
C      -2.46142834     -1.37277273     -0.86331475
O      -2.29186073     -2.12733965     -1.81803293
N      -1.89608466     -0.12576570     -0.83191230
C      -0.77064809      0.24608633     -1.71594764
C      -0.03579882      1.49557284     -1.18544922
C       0.47237461      1.33962819      0.21998519
C      -0.01400491      1.98680366      1.34031040
N       0.71469449      1.57747377      2.42453407
C       1.66815683      0.66526867      2.03915917
C       2.62365799     -0.01489122      2.80373761
C       3.48847071     -0.88559612      2.13526129
C       3.40202747     -1.06321239      0.75707525
C       2.44155222     -0.37395796      0.00748579
C       1.55110505      0.50505939      0.65814244
C      -1.17684201      0.50747820     -3.18315536
O      -0.69640705      1.39600247     -3.87687235
O      -2.03700163     -0.39220810     -3.71197163
H      -3.09993361     -2.70513303      0.66804669
H      -3.23784843     -0.99553296      1.11758382
H      -4.39637448     -1.69377410     -0.03773715
H      -1.90840654      0.34129531      0.06800180
H      -0.08036660     -0.60660255     -1.73623998
H      -0.70908472      2.36269790     -1.22882354
H       0.81668046      1.73657660     -1.83399809
H      -0.80641047      2.71493028      1.45639911
H       0.58548424      1.90228334      3.37303428
H       2.69958288      0.12683932      3.87687264
H       4.24369901     -1.42786856      2.69988981
H       4.08903799     -1.74061338      0.25538048
H       2.39469935     -0.51757552     -1.06794000
H      -2.21694780     -1.15234376     -3.10661924
