47
C=CCc1cc(C(C)(C)c2ccc(O)c(CC=C)c2)ccc1O
C       3.78566909      2.08993072      2.68272768
C       4.20477947      0.95648910      2.10464455
C       3.46934890     -0.35409203      2.16343703
C       3.04727581     -0.83661227      0.79561778
C       1.85077634     -0.35883934      0.23162181
C       1.40804051     -0.76493468     -1.04597601
C       0.08307262     -0.19530193     -1.60973115
C       0.35642596      1.29624197     -1.93787447
C      -0.35899719     -0.85225693     -2.94381255
C      -1.08216409     -0.41141091     -0.61305139
C      -1.34485791     -1.70410708     -0.11843296
C      -2.39359789     -1.94298759      0.77196458
C      -3.20261234     -0.88909691      1.18496940
O      -4.23586758     -1.11917756      2.04867274
C      -2.97581811      0.41000888      0.72562712
C      -3.85073090      1.56913182      1.14534003
C      -4.94702568      1.84483862      0.15341747
C      -5.09181741      2.99307690     -0.52119315
C      -1.91886589      0.63245633     -0.17912706
C       2.21686782     -1.66517592     -1.75654087
C       3.41527221     -2.14073876     -1.21440697
C       3.82378212     -1.72404077      0.05004961
O       4.99937726     -2.18219931      0.57392718
H       2.85662303      2.13511561      3.24205151
H       4.36991391      3.00121813      2.60231976
H       5.14432779      0.95584399      1.55555701
H       4.10773095     -1.09927845      2.65290157
H       2.57973952     -0.27512176      2.80223935
H       1.25044353      0.34547591      0.80771893
H      -0.50175706      1.76587832     -2.43331531
H       1.21343232      1.40076572     -2.61531133
H       0.58240145      1.88454022     -1.04056170
H       0.36780825     -0.67135441     -3.74475554
H      -1.31935673     -0.44530672     -3.28500550
H      -0.48438819     -1.93758830     -2.85085425
H      -0.72222117     -2.54339105     -0.42397880
H      -2.55991008     -2.95472502      1.12799061
H      -4.25020802     -2.06425076      2.27071335
H      -3.21951395      2.45626040      1.28760612
H      -4.29903668      1.37663254      2.12730594
H      -5.66576562      1.04262759     -0.00282743
H      -4.40203315      3.82111359     -0.39360481
H      -5.91160526      3.12395120     -1.22068261
H      -1.77141377      1.64747455     -0.53992230
H       1.94036156     -2.01306675     -2.74773632
H       4.01589647     -2.83234730     -1.79732262
H       5.42019777     -2.77166962     -0.07239603
