14
O=Cc1ccccc1
O       3.02663172      0.78923904      0.57285892
C       2.34333884     -0.12759398      0.13425984
C       0.87148435     -0.04437278      0.05122057
C       0.20726982      1.10801722      0.48052148
C      -1.18371513      1.17573830      0.39746905
C      -1.90548461      0.09562029     -0.11257864
C      -1.23996486     -1.05441955     -0.54079091
C       0.15174603     -1.12813738     -0.46019093
H       2.80345995     -1.06472960     -0.22126174
H       0.76915980      1.95057130      0.87829692
H      -1.70407056      2.07050058      0.73042467
H      -2.98983129      0.15091255     -0.17627598
H      -1.80816211     -1.89259193     -0.93723726
H       0.65813805     -2.02875406     -0.79671598
