6
C.[V]
C       0.00818397      0.00291046      0.00466124
V       0.00000000      0.00000000      0.00000000
H      -0.60995926     -0.86072107     -0.30805991
H      -0.45848137      0.91064281     -0.39006388
H       0.04468047      0.06681425      1.10752775
H       1.01557619     -0.11964645     -0.41406519
