30
CCOC(F)(C(F)(F)C(F)(F)C(F)(F)F)C(F)(C(F)(F)F)C(F)(F)F
C      -0.23588234      3.12071689     -1.29654724
C      -0.48770523      2.12272648     -0.18213963
O      -0.09466388      0.83362276     -0.65396624
C      -0.06503571     -0.21137427      0.32997475
F       0.57444934      0.31709880      1.42316587
C       0.86327076     -1.32571507     -0.18948941
F       0.18032239     -2.09399344     -1.08221957
F       1.16129331     -2.15917358      0.84750960
C       2.15841568     -0.87354962     -0.85066909
F       1.90372097     -0.22042923     -2.02156063
F       2.86033853     -1.99472745     -1.21988275
C       3.02500134     -0.01926590      0.05478568
F       4.23238257      0.22882037     -0.51327393
F       3.26521590     -0.61848202      1.24321619
F       2.47822815      1.18909340      0.31698523
C      -1.46191719     -0.64208149      0.79770678
F      -1.99542901      0.42947513      1.49637205
C      -2.41697185     -0.98516503     -0.30965961
F      -2.07156233     -2.07723934     -1.01320923
F      -3.66310159     -1.21687639      0.16883138
F      -2.54140416      0.03002338     -1.19599992
C      -1.43237292     -1.82335693      1.72111607
F      -2.64347501     -2.06462820      2.27189015
F      -1.05551573     -2.96044861      1.10388330
F      -0.57541418     -1.62103699      2.74760898
H      -0.52460887      4.12980058     -0.98954830
H      -0.80192126      2.84810936     -2.19347355
H       0.82277587      3.12530424     -1.57676568
H      -1.55228322      2.12514890      0.06530107
H       0.09384968      2.40760327      0.70005767
