19
CCC(C)C(C)=O
C      -1.83625121     -1.36876159      0.08113887
C      -1.37372655     -0.07248517     -0.57190776
C      -0.09408556      0.48512290      0.06801519
C       0.22015729      1.87683151     -0.47481750
C       1.10943073     -0.41753784     -0.18929332
C       2.14403976     -0.49495404      0.90412628
O       1.25808611     -1.03136556     -1.24584746
H      -1.09674946     -2.16596954     -0.04029986
H      -2.77158163     -1.70701704     -0.37611978
H      -2.01578147     -1.22566387      1.15147126
H      -1.22641436     -0.24521204     -1.64489025
H      -2.17965751      0.66557339     -0.47699696
H      -0.24554168      0.55272006      1.15233918
H       0.38716576      1.85268498     -1.55751025
H       1.12547266      2.28429534     -0.01221839
H      -0.60231904      2.57039238     -0.27145703
H       1.68148610     -0.87278940      1.81929463
H       2.57345031      0.49431837      1.07811601
H       2.94281977     -1.18018284      0.60685715
