40
NCCO.O=C(Nc1ccc([N+](=O)[O-])cc1Cl)c1cc(Cl)ccc1O
N       1.02162409      0.90238545     -0.01361216
C       0.17646662     -0.07864261     -0.70827168
C      -0.78051985     -0.74294312      0.28590554
O      -1.49336759      0.26224024      1.00361641
O      -1.08058084     -1.12433737      1.29145559
C      -1.02598814     -0.28628872      0.39571175
N       0.12209029      0.19889411     -0.19833279
C       1.45707987     -0.22194110      0.02169604
C       1.79497045     -1.31247543      0.82966515
C       3.13405427     -1.68383209      1.00592587
C       4.14748371     -0.96131668      0.36585132
N       5.55046153     -1.35193960      0.55089734
O       6.41393028     -0.68201546     -0.03233397
O       5.78619779     -2.32692661      1.27726225
C       3.83383468      0.12825221     -0.45167264
C       2.49434956      0.48773015     -0.61874871
Cl      2.13879977      1.83965642     -1.64275514
C      -2.31193505      0.31607829     -0.06191789
C      -2.45542553      0.84644936     -1.35219500
C      -3.67122280      1.41583834     -1.73692902
Cl     -3.83663238      2.07067069     -3.31984890
C      -4.75143628      1.45685991     -0.85754900
C      -4.62373653      0.90869020      0.41772372
C      -3.41589597      0.33195263      0.80709601
O      -3.38556157     -0.20443985      2.06671277
H       1.63661439      1.34826229     -0.69550423
H       1.63788633      0.41411632      0.63783673
H       0.79472139     -0.83020545     -1.20860973
H      -0.40268641      0.45636182     -1.46831566
H      -0.23217508     -1.35425777      1.00999908
H      -1.50276473     -1.37938182     -0.23327434
H      -0.85579915      1.00206464      1.08617678
H       0.04018434      1.00886112     -0.80474893
H       1.03862471     -1.90470840      1.33727328
H       3.36227580     -2.53723406      1.64317962
H       4.61307169      0.69544798     -0.95632293
H      -1.64784874      0.80144216     -2.07658955
H      -5.69611435      1.90145656     -1.16042531
H      -5.46511329      0.92174453      1.10640239
H      -2.55991726     -0.73256928      2.15351672
