21
C=CC1(C=C)C(=O)NC(=O)NC1=O
C      -1.08476925     -2.54401210     -0.09057788
C      -1.31579752     -1.22990458      0.05157182
C      -0.40276651     -0.05513603     -0.29996717
C      -1.14143278      0.89352566     -1.24426540
C      -1.37225052      2.20766211     -1.10203992
C      -0.06960390      0.60941406      1.05045982
O      -0.92316688      1.02004820      1.84186865
N       1.24829978      0.75025033      1.38431627
C       2.32060576      0.31767609      0.67739347
O       3.46532303      0.47438019      1.08820824
N       2.06939559     -0.29607894     -0.50451122
C       0.84794549     -0.50286405     -1.08197503
O       0.80684242     -1.03597285     -2.19446045
H      -0.17157483     -2.94497354     -0.51936220
H      -1.83734444     -3.26786816      0.21252323
H      -2.27364870     -0.94168723      0.49149556
H      -1.50906203      0.42385811     -2.15987585
H      -1.05772759      2.77668975     -0.23265341
H      -1.91443409      2.75427421     -1.86980262
H       1.44130674      1.18779278      2.27434573
H       2.87386021     -0.59707403     -1.03656940
