30
Cc1cc(O)c(C(C)C)cc1C(=O)CCl
C      -2.97074296     -1.80355258     -0.88975907
C      -1.62175533     -1.28165002     -0.47631764
C      -0.65583362     -2.18902152     -0.01336552
C       0.61143318     -1.74656773      0.37441671
O       1.53077021     -2.65140712      0.82520506
C       0.96341732     -0.39423227      0.30633525
C       2.34840315      0.08802072      0.71325908
C       2.27967897      1.13067629      1.83367932
C       3.12262043      0.63264583     -0.49039507
C       0.00050110      0.51127233     -0.17376671
C      -1.28103434      0.08086194     -0.55744528
C      -2.25721894      1.08831867     -1.06248655
O      -2.93243305      0.83654820     -2.05833906
C      -2.39482728      2.38493868     -0.29908631
Cl     -1.61916302      3.69264451     -1.20697200
H      -3.12902538     -2.82560944     -0.52836803
H      -3.05424333     -1.81707258     -1.98075747
H      -3.77247963     -1.19193393     -0.46360839
H      -0.90269056     -3.24648636      0.04234577
H       1.15512669     -3.54500386      0.76765530
H       2.92847093     -0.75387508      1.10950819
H       1.78769159      2.05385333      1.50913264
H       3.28695377      1.39552911      2.17333318
H       1.72668053      0.74186006      2.69599119
H       2.64896335      1.52518819     -0.91349089
H       4.14336410      0.90447346     -0.20033093
H       3.18892516     -0.11870605     -1.28518434
H       0.27203173      1.56011753     -0.27153956
H      -3.45738057      2.61473568     -0.17566327
H      -1.94620421      2.32343402      0.69601439
