18
C=C(C)CCC
C      -1.90965988      1.39505042      0.33407614
C      -1.24952869      0.27915392     -0.01672446
C      -1.89165945     -1.07661106      0.07862322
C       0.15991451      0.33084711     -0.56121021
C       1.19264761     -0.21847975      0.42577436
C       2.60455198     -0.10553401     -0.12908556
H      -1.45063317      2.37597934      0.25483413
H      -2.92658311      1.35934878      0.71324251
H      -1.35993322     -1.70687382      0.79775540
H      -2.93584855     -1.01355154      0.40326691
H      -1.87886023     -1.57259896     -0.89730373
H       0.20101001     -0.23404826     -1.50101995
H       0.42564325      1.36452731     -0.81850439
H       1.13510266      0.32996445      1.37371387
H       0.98550038     -1.27135446      0.64895289
H       2.86599319      0.93875443     -0.32766451
H       2.70531090     -0.66909958     -1.06213054
H       3.32703181     -0.50547434      0.58926047
