20
NS(=O)(=O)c1nc2ccc(O)cc2s1
N       4.06769308      0.71466023      0.66527106
S       3.39937856      0.11510101     -0.77152647
O       3.58891724      1.11861990     -1.79302274
O       3.87469234     -1.24456469     -0.89554678
C       1.64651591      0.00404891     -0.50166747
N       1.03533921      0.38262565      0.60528850
C      -0.32313190      0.15405054      0.45710354
C      -1.31462557      0.42779322      1.42264644
C      -2.65738639      0.14768820      1.14486400
C      -3.00837887     -0.39940548     -0.08186254
O      -4.30950040     -0.68309663     -0.38073912
C      -2.05604277     -0.68289281     -1.05942492
C      -0.71285177     -0.39733785     -0.76905380
S       0.68404559     -0.62778389     -1.75349241
H       3.41888494      1.36402156      1.11444475
H       4.32117276     -0.06542661      1.27194902
H      -1.02796892      0.85592491      2.37843448
H      -3.40734779      0.36501355      1.89979267
H      -4.87057435     -0.43871730      0.37394070
H      -2.34883089     -1.11032242     -2.01329405
