35
CCCCN(CCO)CCCC
C      -4.05404791     -1.32774213      1.95103896
C      -3.49411941     -0.58692101      0.74711304
C      -1.99082782     -0.33972626      0.88993248
C      -1.43702904      0.41334372     -0.32843202
N       0.00288666      0.71130122     -0.17334761
C       0.38782461      1.85878751     -1.03735648
C      -0.01321559      3.19613811     -0.39326533
O       0.43897701      3.22996390      0.95973737
C       0.81892768     -0.47658973     -0.50394844
C       2.19608698     -0.41782816      0.17272900
C       3.00924967     -1.67960167     -0.12406115
C       4.37348551     -1.63390409      0.54567479
H      -5.12899233     -1.49290758      1.82808846
H      -3.90141948     -0.75373239      2.87056990
H      -3.57199396     -2.30327693      2.07054673
H      -4.02067900      0.36822298      0.63704387
H      -3.69002257     -1.17243091     -0.15869250
H      -1.48400419     -1.30207889      1.01968355
H      -1.80309830      0.24698069      1.79819707
H      -1.62316470     -0.14942353     -1.25254946
H      -2.01166069      1.34277247     -0.41340829
H       1.47755730      1.88852637     -1.14668815
H      -0.03210067      1.76926916     -2.04655247
H      -1.09664573      3.34447116     -0.39525569
H       0.44453969      4.03253225     -0.93001720
H       0.34495694      2.30469360      1.26943977
H       0.92370491     -0.58924573     -1.59105874
H       0.32954046     -1.39051255     -0.14860335
H       2.76206995      0.45663636     -0.16610296
H       2.06603099     -0.31539400      1.25761225
H       3.14330544     -1.78925255     -1.20650764
H       2.46656175     -2.56474685      0.22763502
H       4.27418922     -1.55526995      1.63300054
H       4.95641347     -0.77801275      0.19075181
H       4.93671316     -2.54504184      0.32094194
