12
Clc1cccc(Cl)c1
Cl     -2.39170771     -1.94760648     -0.00945166
C      -1.07124747     -0.84396246     -0.00405851
C      -1.31966841      0.52924271      0.00461142
C      -0.25186013      1.42790349      0.00901007
C       1.05896515      0.94879629      0.00471506
C       1.29534335     -0.42653302     -0.00395660
Cl      2.91370408     -1.01181525     -0.00922523
C       0.23450196     -1.32949231     -0.00838717
H      -2.34033376      0.90378481      0.00796306
H      -0.44073855      2.49873639      0.01576634
H       1.88989754      1.64993125      0.00814807
H       0.42314396     -2.39898543     -0.01513486
