46
CCn1cc(C(=O)O)c(=O)c2cc(F)c(N3CCNC(C)C3)c(F)c21.Cl
C       1.84290211     -3.11769068      0.67340290
C       2.08269943     -1.88849463      1.51018166
N       2.49883641     -0.73845631      0.75150902
C       3.83945336     -0.45061973      0.64970697
C       4.32745887      0.64129899     -0.00831182
C       5.75645105      0.93802152     -0.11020521
O       6.62656624      0.19600355      0.40815072
O       6.21238302      2.05915411     -0.78839285
C       3.42127550      1.49198393     -0.59725293
O       3.78785291      2.51881676     -1.22051396
C       2.05054063      1.23084085     -0.51539854
C       1.17564548      2.10258243     -1.12940383
C      -0.17554707      1.82771045     -1.05337900
F      -1.05925021      2.66668143     -1.64670620
C      -0.64132654      0.72247689     -0.38934039
N      -2.03712477      0.49999214     -0.35059424
C      -2.78127387      1.07393167      0.74442891
C      -4.20069290      1.36180807      0.44166811
N      -4.78649578      0.54734498     -0.58192196
C      -4.05140025     -0.66563787     -0.84631365
C      -3.99390157     -1.60293718      0.30950112
C      -2.69793999     -0.27776364     -1.37531234
C       0.26045623     -0.12773871      0.21330798
F      -0.20502682     -1.24762017      0.85335336
C       1.62608517      0.08879768      0.17731928
Cl      0.69024577      0.00000000      0.00000000
H       1.57713049     -2.83273300     -0.37534243
H       0.95942468     -3.66488267      1.06130372
H       2.67024063     -3.85635676      0.69357012
H       2.99406272     -2.21358281      2.15221271
H       1.23193316     -1.76578362      2.18338986
H       4.50653406     -1.13864784      1.12120894
H       6.05699967      2.98286066     -0.35786630
H       1.56176115      2.96652022     -1.64734441
H      -2.63028054      0.42096000      1.63748006
H      -2.28498690      2.05005582      1.01718429
H      -4.79581240      1.17628156      1.38310404
H      -4.37830362      2.43878123      0.19022838
H      -4.80903839      1.07893774     -1.49982921
H      -4.60008427     -1.18221284     -1.68389949
H      -2.94634056     -1.87819981      0.55025484
H      -4.61372436     -2.52055094      0.15233441
H      -4.42969796     -1.10620052      1.20354462
H      -2.09814818     -1.17980022     -1.63942857
H      -2.85029600      0.37406727     -2.26158870
H      -0.69024577      0.00000000      0.00000000
