36
NC(=O)C1CCCN1C(=O)COC(=O)c1ccccc1
N      -3.35818444     -1.18052398     -1.68827677
C      -3.86546566     -1.05510893     -0.42369568
O      -4.79343366     -1.76541491     -0.04956082
C      -3.15614394     -0.00279771      0.45292233
C      -3.94191170      0.31757028      1.72664954
C      -3.39840544     -0.68420005      2.74058948
C      -1.92370478     -0.76242418      2.38249898
N      -1.87848053     -0.52999233      0.94797441
C      -0.75351167     -0.56725517      0.15118507
O      -0.81181403     -0.29113696     -1.05058949
C       0.55382841     -1.02319709      0.81387890
O       1.70484821     -0.72688633      0.02266590
C       2.05286050      0.58486373      0.03805730
O       1.52380117      1.44966427      0.71968680
C       3.19637411      0.84096992     -0.87832539
C       3.73203430      2.13556449     -0.92128586
C       4.80654729      2.42593018     -1.76417030
C       5.34999874      1.42653369     -2.56954755
C       4.82061029      0.13697909     -2.53546319
C       3.74588320     -0.15794589     -1.69299343
H      -3.69001203     -1.96032881     -2.23827413
H      -2.40302005     -0.85986671     -1.85708196
H      -2.99128590      0.89976963     -0.14729293
H      -3.70151977      1.33443218      2.06131498
H      -5.02729926      0.24819560      1.61069963
H      -3.87472613     -1.66104561      2.59691905
H      -3.56333298     -0.37393503      3.77602995
H      -1.35664170      0.03608031      2.87343782
H      -1.47516061     -1.72759456      2.63371530
H       0.50557036     -2.11215131      0.91932731
H       0.66820799     -0.59679041      1.81581047
H       3.31262752      2.92389159     -0.29914849
H       5.21695178      3.43238652     -1.79339319
H       6.18564344      1.65395187     -3.22737024
H       5.24344287     -0.64014014     -3.16709343
H       3.34482412     -1.16804725     -1.68740631
