24
N.N.O=C(O)[C@H](O)[C@@H](O)C(=O)O
N       0.06225607     -0.06879918      0.28065552
N      -0.01681210     -0.03630126      0.29287610
O       1.76012116     -1.59239206      1.38234229
C       1.85089693     -0.87123095      0.40140204
O       3.03761164     -0.42409785     -0.08624204
C       0.68059602     -0.38116163     -0.44257032
O       1.16446344      0.67524510     -1.30710732
C      -0.43694759      0.13133601      0.47090632
O      -0.37482037      1.57071952      0.50032194
C      -1.79138721     -0.36466407     -0.02371055
O      -2.04879888     -1.43409559     -0.54650830
O      -2.77358435      0.53381596      0.22831647
H       0.89719641      0.03523119     -0.29416011
H      -0.51005008     -0.77459384     -0.18051758
H      -0.44940239      0.80816184      0.19402217
H       0.92881256     -0.16026802     -0.06599423
H      -0.60053766     -0.69543896     -0.22011768
H      -0.31146280      0.89200823     -0.00676420
H       2.84486187      0.13704476     -0.87642748
H       0.38691293     -1.22038611     -1.08060568
H       0.87306816      1.50629495     -0.86330152
H      -0.34341128     -0.22515666      1.50236217
H      -1.24274057      1.85676386      0.85579274
H      -3.58684190      0.10196478     -0.11497076
