34
CCC1(N2CCCCC2)C(=O)NC(=O)NC1=O
C      -2.52199167      2.38910713     -0.42035297
C      -1.05151237      1.98612301     -0.28787158
C      -0.81824313      0.47148002      0.00702403
N       0.65021465      0.18361276      0.27525648
C       0.93465791     -1.22139658      0.62098270
C       2.38125815     -1.41187971      1.08254198
C       3.36577668     -0.92277875      0.03169107
C       3.03372991      0.50763895     -0.36389417
C       1.56650437      0.65159773     -0.78094427
C      -1.30994215     -0.34379329     -1.20345550
O      -1.09853148     -0.02690621     -2.37496483
N      -1.99324411     -1.49810866     -0.93896695
C      -2.65066339     -1.77290335      0.21544727
O      -3.48952648     -2.66547332      0.27513420
N      -2.37640255     -0.98519228      1.28549987
C      -1.60490161      0.14581602      1.29558366
O      -1.55760470      0.82575037      2.32194784
H      -3.07242896      2.24023475      0.51283989
H      -2.59179903      3.45197853     -0.67494798
H      -3.02394869      1.82471182     -1.21179019
H      -0.57095102      2.27768527     -1.22891804
H      -0.59857881      2.59650086      0.50427058
H       0.74295104     -1.88113950     -0.23411808
H       0.29826242     -1.55965307      1.44456939
H       2.54244092     -0.86566219      2.02068593
H       2.56448024     -2.47139366      1.29471238
H       4.38944989     -0.98011635      0.41737049
H       3.31561138     -1.57108050     -0.85157397
H       3.24158022      1.17857650      0.47951161
H       3.68362590      0.82228348     -1.18846479
H       1.41792150      1.71392584     -0.99226966
H       1.40480707      0.10121963     -1.71511657
H      -2.30731385     -2.01541444     -1.74868374
H      -2.89568823     -1.17535079      2.13126392
