41
CN1CCN(C2=Nc3ccccc3Oc3ccc(Cl)cc32)CC1
C       4.41496776     -1.45689041      0.65170303
N       3.71670266     -0.38516907     -0.05536947
C       2.86359306     -0.94650522     -1.13175187
C       2.04388338      0.14412447     -1.85740322
N       1.21609171      0.91951040     -0.90359688
C      -0.05283021      0.43029764     -0.56231083
N      -0.36008232     -0.80032342     -0.86827673
C      -1.59327009     -1.39843495     -0.57450658
C      -2.09698654     -2.31707115     -1.50199819
C      -3.27528264     -3.02660838     -1.25141477
C      -3.95992812     -2.83818020     -0.05295071
C      -3.46971641     -1.93529240      0.88821892
C      -2.30227231     -1.21312565      0.61858432
O      -1.87808108     -0.33465239      1.58832519
C      -1.83117366      0.96437619      1.14945996
C      -2.64000058      1.88843007      1.81729756
C      -2.64636339      3.22499267      1.41624780
C      -1.83838106      3.63211307      0.35522169
Cl     -1.84875652      5.27979089     -0.13947193
C      -1.01439131      2.71912067     -0.29934826
C      -0.99920847      1.37778296      0.10819770
C       2.06924403      1.49975205      0.16012565
C       2.87277670      0.39194315      0.87994644
H       3.72420875     -2.16379233      1.12541430
H       5.06779714     -1.04153028      1.42732020
H       5.05922803     -2.01400259     -0.03738947
H       2.18621427     -1.70594669     -0.72117385
H       3.50062091     -1.44414609     -1.87274548
H       1.42320619     -0.30237092     -2.64322583
H       2.72740668      0.83626454     -2.36582637
H      -1.55224865     -2.48674824     -2.42739591
H      -3.64701718     -3.73428689     -1.98783254
H      -4.87026805     -3.39649372      0.14879155
H      -3.99640213     -1.78670541      1.82629453
H      -3.27248701      1.56331910      2.63924085
H      -3.28383308      3.93989994      1.93011900
H      -0.38209685      3.04380474     -1.12187515
H       2.75818676      2.22258216     -0.29476559
H       1.47940303      2.05389491      0.89741995
H       2.17592535     -0.27173363      1.40935204
H       3.51162125      0.86801044      1.63334894
