26
N#CN=C1NCCN1Cc1ccc(Cl)nc1
N      -4.56718110      2.51173547     -1.49227825
C      -3.49935219      2.06303825     -1.43601652
N      -2.27420321      1.53990223     -1.34179924
C      -2.08640661      0.62437310     -0.45616005
N      -2.97521375      0.08481614      0.44663871
C      -2.33561392     -0.76832756      1.42884775
C      -1.01876330     -1.11816735      0.72641358
N      -0.87768807     -0.01375467     -0.22700886
C       0.15942648     -0.08193993     -1.24331316
C       1.52991672     -0.12277516     -0.62029940
C       2.01056778      0.94070500      0.15287292
C       3.28225010      0.86726349      0.71374167
C       4.02714732     -0.27436984      0.47728506
Cl      5.60024024     -0.45070686      1.13633464
N       3.60552961     -1.32143600     -0.26103699
C       2.36932432     -1.21856204     -0.79678387
H      -3.81596978      0.59221602      0.69576776
H      -2.15111353     -0.20300414      2.34829774
H      -2.93203424     -1.65486548      1.65959787
H      -0.18862799     -1.17678258      1.43642757
H      -1.10953912     -2.07071915      0.19184766
H      -0.00808385     -0.96074311     -1.87798330
H       0.12613949      0.79082399     -1.90719616
H       1.39140442      1.82015853      0.31934684
H       3.67374804      1.67841228      1.31641592
H       2.06409615     -2.07729063     -1.38995990
