48
C#CC1(O)CCC2C3CCC4=CC(=O)CCC4C3CCC21C
C      -5.11163609      0.42716083      1.76435224
C      -4.37322403      0.03755859      0.90022961
C      -3.47798768     -0.44897211     -0.17405430
O      -3.98118173     -1.69302717     -0.64146645
C      -3.45814033      0.56286847     -1.32886779
C      -2.24203492      1.46208066     -1.08685030
C      -1.52316783      0.92186655      0.17044325
C       0.00014877      1.17366931      0.12617754
C       0.62741409      1.29510976      1.53838824
C       1.79478227      0.35769445      1.84508349
C       2.79036305      0.23271732      0.72347414
C       4.07099822     -0.08953659      0.97612763
C       5.06397407     -0.22006899     -0.11973390
O       6.23718710     -0.45847984      0.15806636
C       4.60477088      0.00319909     -1.54269296
C       3.12284772     -0.31695191     -1.70273770
C       2.28471756      0.46883562     -0.68342244
C       0.76236672      0.21712692     -0.82294944
C       0.33964659     -1.25244639     -0.66071560
C      -1.17510801     -1.43115934     -0.75313166
C      -1.97515767     -0.55568328      0.24991150
C      -1.81241568     -1.15182531      1.66118835
H      -5.77131001      0.77401324      2.52620383
H      -4.11923995     -2.25406901      0.14029814
H      -3.35870233      0.05735975     -2.29757919
H      -4.37787698      1.15687361     -1.39163303
H      -2.54884482      2.50258617     -0.93082261
H      -1.59881949      1.45095421     -1.97316094
H      -1.93964093      1.47673706      1.02342256
H       0.11810809      2.18051350     -0.30540313
H       0.99234561      2.32631819      1.64923573
H      -0.13060603      1.17935395      2.32179520
H       1.40611148     -0.63843790      2.08018022
H       2.29125288      0.70993747      2.75839855
H       4.44897387     -0.26495940      1.97714195
H       5.18820093     -0.64668284     -2.20366265
H       4.80989423      1.04568107     -1.80929197
H       2.80369858     -0.07431553     -2.72294017
H       2.98241665     -1.39641142     -1.56718370
H       2.44267392      1.53842751     -0.89174448
H       0.49186848      0.50008051     -1.85051812
H       0.79162163     -1.85400405     -1.45816743
H       0.70574769     -1.68055653      0.27535637
H      -1.47069737     -1.20759658     -1.78541737
H      -1.41602366     -2.49105428     -0.59983010
H      -0.76485387     -1.30175746      1.92879150
H      -2.30556236     -2.12772429      1.73232190
H      -2.23989930     -0.50300356      2.43266585
