6
O=[Mo](=O)([O-])[O-].[Ca+2]
O      -1.18483461      0.71648404     -0.91598738
Mo     -0.75046279      0.08511906     -0.00333526
O       1.31389605      1.30832169      0.57715893
O      -0.46499697     -0.96344490      1.43239233
O       1.08639831     -1.14647989     -1.09022862
Ca      0.00000000      0.00000000      0.00000000
