25
Nc1ccc(NCCO)c([N+](=O)[O-])c1
N       4.22749860     -0.64322664      0.18986268
C       2.85996453     -0.40295195      0.04242122
C       1.96577740     -1.46468380     -0.07463651
C       0.57894349     -1.24936920     -0.10076439
C       0.02564628      0.02927551      0.06164712
N      -1.35926842      0.25329081     -0.06317854
C      -2.30139721     -0.83697690      0.23492990
C      -3.73525679     -0.31368906      0.07967297
O      -3.93975492      0.15988774     -1.25087535
C       0.95227548      1.08871513      0.20434363
N       0.49290812      2.46831209      0.36982297
O      -0.58587936      2.65328818      0.95714353
O       1.21677567      3.37260789     -0.07287153
C       2.34433685      0.87500517      0.22788309
H       4.82283171      0.14801685     -0.03821316
H       4.55218474     -1.50178141     -0.24544751
H       2.33782202     -2.48327543     -0.16229909
H      -0.05152402     -2.12117278     -0.25014359
H      -1.62401598      1.11748108      0.42964058
H      -2.16132418     -1.65438231     -0.48050863
H      -2.15081282     -1.20924259      1.25400340
H      -4.46021698     -1.10851040      0.27720207
H      -3.92881333      0.51529079      0.76807451
H      -3.10355711      0.59939928     -1.50470961
H       3.02485624      1.70869197      0.38774832
