28
N[C@@H](Cc1cc([N+](=O)[O-])c(O)c([N+](=O)[O-])c1)C(=O)O
N       3.83152214      0.16020573     -0.65457006
C       2.43564230      0.42406696     -0.17699124
C       1.56558596     -0.83923237     -0.28948893
C       0.07854284     -0.56281619     -0.22568523
C      -0.65387990     -0.85238733      0.93736982
C      -2.03617303     -0.58311324      1.00686150
N      -2.75073138     -0.92732478      2.23938340
O      -2.18982950     -1.67639046      3.04938757
O      -3.89165441     -0.45931735      2.38195825
C      -2.71278274     -0.01683830     -0.08273757
O      -4.05498552      0.24672918     -0.09725423
C      -1.96631087      0.26375807     -1.22983166
N      -2.60724834      0.85412017     -2.38683885
O      -2.97112390      2.03336444     -2.29425568
O      -2.66942904      0.15131472     -3.40521799
C      -0.59095029     -0.00370999     -1.31969896
C       2.52552556      0.92404123      1.27901472
O       1.59966039      0.98846263      2.07082059
O       3.79103821      1.31763610      1.58201704
H       4.12622571     -0.76151100     -0.31186162
H       3.80319669      0.05123660     -1.67314006
H       2.03573313      1.25128512     -0.77423171
H       1.84131010     -1.56213887      0.48980555
H       1.76001130     -1.34398920     -1.24582580
H      -0.13565939     -1.27378108      1.80068673
H      -4.44156238      0.15101447      0.80092313
H      -0.05334646      0.22702772     -2.23867971
H       4.33167283      1.15612945      0.76808098
