52
N#Cc1ccc(S(=O)(=O)NCC(c2ccccc2)N2CCCCCC2)cc1
N       6.19680046      2.62508141     -2.75974433
C       5.62877958      2.12819410     -1.87816607
C       4.91760664      1.51011672     -0.79718423
C       4.29446771      2.30181558      0.17547520
C       3.59158717      1.70137480      1.22220036
C       3.51015263      0.30665525      1.28775706
S       2.60763811     -0.44198734      2.61963693
O       2.70073835     -1.87958306      2.49958377
O       2.97288566      0.25272439      3.83314848
N       1.03554721      0.00665960      2.26889985
C       0.24988134     -0.80843513      1.32379598
C      -0.92969341      0.02113271      0.72095503
C      -0.49547922      1.20483381     -0.15299522
C      -1.27451740      2.37618658     -0.14498048
C      -0.92585173      3.47839925     -0.92808747
C       0.20051689      3.42474615     -1.74399362
C       0.97190630      2.26662823     -1.78354522
C       0.62574675      1.16401034     -0.99743594
N      -1.99152563     -0.78120952      0.05694553
C      -1.54284641     -1.46896755     -1.15760682
C      -2.50953995     -2.47701545     -1.79042925
C      -3.96386678     -2.01960214     -1.82838707
C      -4.70204725     -2.34518057     -0.53313656
C      -4.23990030     -1.56241039      0.69166452
C      -2.73969756     -1.62254273      0.99315025
C       4.13822939     -0.49277534      0.32894592
C       4.84039145      0.11319226     -0.71614608
H       4.34755250      3.38820722      0.12249518
H       3.10469712      2.31937991      1.97402966
H       0.55582010      0.45171378      3.05028949
H      -0.14918785     -1.65798633      1.88983631
H       0.89429162     -1.20962149      0.53635465
H      -1.40747494      0.50179012      1.58917603
H      -2.17069013      2.42974892      0.47032640
H      -1.54082947      4.37432306     -0.90744565
H       0.46822035      4.27955974     -2.35941614
H       1.84013676      2.21733894     -2.43557544
H       1.23918387      0.27150250     -1.07238992
H      -0.60305594     -2.00410204     -0.97838944
H      -1.33311013     -0.71425883     -1.92454343
H      -2.17323803     -2.65380966     -2.82032402
H      -2.43101403     -3.44453389     -1.27920032
H      -4.46934285     -2.55642697     -2.64099381
H      -4.03762813     -0.95159682     -2.06375643
H      -4.61581826     -3.41938804     -0.32547615
H      -5.77136122     -2.14982875     -0.68161172
H      -4.55144866     -0.51429758      0.58954688
H      -4.78234725     -1.95147609      1.56301023
H      -2.36925662     -2.65458594      1.01585634
H      -2.62691908     -1.24524173      2.01804410
H       4.08709476     -1.57827923      0.38732931
H       5.32781552     -0.51017280     -1.46445860
