37
CC(=O)Nc1nc2c(ncn2COCCOC(C)=O)c(=O)[nH]1
C      -2.23803609      3.63731671     -0.00716406
C      -2.72246544      2.21392506     -0.04959935
O      -3.89062276      1.92174920     -0.29498083
N      -1.73139961      1.28413269      0.19336127
C      -1.84610017     -0.07561037      0.15614682
N      -0.77074907     -0.76590006      0.38857463
C      -0.95504076     -2.09904178      0.25978840
C      -2.11912795     -2.76915611     -0.04145936
N      -1.90889058     -4.12452268     -0.10520901
C      -0.61949701     -4.26994253      0.13351193
N       0.00091303     -3.06823972      0.36500506
C       1.39512741     -2.87928044      0.71143838
O       2.11888170     -2.52059347     -0.46504659
C       2.91372201     -1.33978397     -0.32909731
C       2.07019387     -0.06867130     -0.25813545
O       2.88287702      1.10452427     -0.36146288
C       2.16810783      2.25896706     -0.21912478
C       3.07459763      3.44333508     -0.35795961
O       0.96361029      2.33084078      0.00333589
C      -3.31996266     -1.98012337     -0.25137088
O      -4.43094621     -2.43195887     -0.50731020
N      -3.07487880     -0.61754540     -0.13636759
H      -1.83742838      3.91188443     -0.98611860
H      -1.46362989      3.76348656      0.75520721
H      -3.07307168      4.29696372      0.24452560
H      -0.77782975      1.62027756      0.32348722
H      -0.08875167     -5.21344415      0.15060190
H       1.45759094     -2.13603036      1.51318828
H       1.78687449     -3.83056565      1.08538496
H       3.57563090     -1.42489454      0.54098509
H       3.56839289     -1.28754048     -1.20628765
H       1.55438786     -0.03976819      0.70572477
H       1.33617274     -0.07212524     -1.07233511
H       2.48013645      4.36067410     -0.31856808
H       3.79477017      3.45582894      0.46366044
H       3.58926471      3.40743315     -1.32125904
H      -3.86282347      0.00339936     -0.29098971
