39
CC(C)(C)c1nc(-c2cccs2)c2c(N)c(C#N)c(N)nc2n1
C       3.65987574     -0.24238224     -1.29590408
C       3.13379205     -0.01345183      0.13000230
C       3.79881240      1.24440079      0.72213813
C       3.52051210     -1.21550154      1.01384330
C       1.61774620      0.14953703      0.06370631
N       0.85753814     -0.94139597      0.13437908
C      -0.47449564     -0.76782630      0.00749383
C      -1.16699668     -2.05291578      0.07626134
C      -1.45526496     -2.82380424      1.18571184
C      -2.13881546     -4.02777275      0.84590822
C      -2.33240680     -4.14511501     -0.51245088
S      -1.69003438     -2.81180633     -1.37062509
C      -1.10826249      0.47886874     -0.17296990
C      -2.51059062      0.80073526     -0.29062520
N      -3.51443693     -0.17609055     -0.08011992
C      -2.87899373      2.15558504     -0.39111565
C      -4.25246310      2.55553177     -0.44330759
N      -5.37621995      2.84731546     -0.47429559
C      -1.87797661      3.11164540     -0.45596596
N      -2.13056899      4.47044454     -0.63312445
N      -0.57774629      2.79308906     -0.39879508
C      -0.19351224      1.53093870     -0.24097686
N       1.11679692      1.37066128     -0.14118529
H       3.22024916     -1.14093773     -1.74498508
H       4.74875161     -0.36629505     -1.30116704
H       3.41761884      0.60208635     -1.95201501
H       3.62346317      2.12941826      0.09932739
H       4.88439785      1.11623508      0.80378910
H       3.41186785      1.46330998      1.72439100
H       4.60939637     -1.31448917      1.09199762
H       3.12113586     -1.10626248      2.02909907
H       3.13808461     -2.15939929      0.60790927
H      -1.18698393     -2.53485024      2.19520562
H      -2.46150979     -4.77443330      1.56157739
H      -2.81027112     -4.95604062     -1.04557590
H      -3.27573544     -1.12435912     -0.36053304
H      -4.44824033      0.05873701     -0.41447420
H      -1.23611349      4.95838315     -0.61396177
H      -2.78239992      4.85820662      0.04143277
