13
O=c1cc[nH]c(O)c1
O      -1.09973647      2.45305664      0.49519826
C      -0.71692005      1.31221109      0.25875213
C      -1.68645061      0.22251460     -0.03086183
C      -1.18728301     -0.99419339     -0.27868944
N       0.15475850     -1.25037473     -0.27179373
C       1.08524454     -0.28564921     -0.01194806
O       2.38845381     -0.70534396     -0.04341752
C       0.73427549      0.98098958      0.25410558
H      -2.74028731      0.45889531     -0.02841356
H      -1.82050060     -1.84747352     -0.49945323
H       0.50361335     -2.18311430     -0.46339496
H       2.96033028      0.05547989      0.15377145
H       1.42450208      1.78300200      0.46614491
