22
COC(=O)c1ccc(OC)cc1
C      -4.43647100     -0.22178713      0.19153367
O      -3.07347548      0.18910709      0.30636541
C      -2.18014638     -0.74737125     -0.09983287
O      -2.45439871     -1.85583168     -0.53252477
C      -0.78662966     -0.24629511      0.04990492
C      -0.49317286      1.02785310      0.54806419
C       0.83705385      1.44287653      0.66572963
C       1.88645075      0.59928146      0.29098069
O       3.13422101      1.13216571      0.45868569
C       4.23833810      0.31403890      0.09212958
C       1.59604401     -0.67133804     -0.20587995
C       0.26569404     -1.09182275     -0.32572213
H      -4.62708886     -1.09796801      0.81921539
H      -4.68749976     -0.43017980     -0.85324874
H      -5.06820835      0.59903955      0.54209559
H      -1.28410591      1.70991745      0.84897978
H       1.05817006      2.43481075      1.05381594
H       5.15365905      0.88161691      0.28569281
H       4.27518376     -0.59520138      0.70121705
H       4.21459109      0.07454021     -0.97611161
H       2.37690399     -1.36090862     -0.50942776
H       0.05488727     -2.08654389     -0.71529440
