36
CCCCC(CC)COC(=O)C(C)O
C      -3.43468694      2.25334299     -1.09239617
C      -2.62648511      1.66569779      0.05356104
C      -1.83195780      0.43668441     -0.39319335
C      -1.02079176     -0.14641784      0.76819515
C      -0.18262574     -1.39812564      0.41811080
C      -1.01553012     -2.60149978     -0.06468623
C      -2.08230152     -3.04917910      0.92395955
C       0.92431896     -1.09818057     -0.60967855
O       1.74402138     -0.02489782     -0.12716163
C       2.74769807      0.33977091     -0.96894532
O       2.96409989     -0.15446563     -2.07060179
C       3.55368809      1.51354231     -0.40615994
C       4.05837017      1.23586440      0.99954209
O       4.68788958      1.80173766     -1.22712670
H      -2.78144730      2.56576348     -1.91337429
H      -3.99425468      3.12987406     -0.75111868
H      -4.15132828      1.52323078     -1.48186686
H      -3.30576474      1.39359496      0.86980492
H      -1.94318626      2.43059865      0.44054199
H      -2.52639213     -0.31515085     -0.78362133
H      -1.16409545      0.72219359     -1.21324015
H      -0.35395052      0.63190828      1.16093915
H      -1.69985301     -0.38866969      1.59481770
H       0.31973122     -1.69012171      1.35140407
H      -0.34070098     -3.44910521     -0.24001064
H      -1.48693200     -2.38109909     -1.02943397
H      -2.87292877     -2.30067121      1.02916371
H      -1.64898230     -3.24022433      1.91066626
H      -2.55101563     -3.97514026      0.57521906
H       1.55229197     -1.98791106     -0.74235826
H       0.49133832     -0.82670926     -1.57945291
H       2.90958866      2.39888760     -0.41871497
H       4.68284685      0.33543391      1.01721577
H       3.23470429      1.09145454      1.70542314
H       4.68121788      2.06311053      1.35635044
H       4.46340570      1.49487818     -2.12808349
