12
C/C=C\C(=O)O
C      -1.57842582      0.20103731      0.82464548
C      -0.74341283     -0.85147873      0.16958051
C       0.46676043     -0.73259755     -0.39953304
C       1.26509766      0.50055416     -0.50792618
O       0.99818207      1.61854084     -0.11779672
O       2.42073143      0.23142945     -1.13987353
H      -1.77399207     -0.08155596      1.86397324
H      -1.12432794      1.19207900      0.82999433
H      -2.54074901      0.27816468      0.30861005
H      -1.19678841     -1.84200396      0.16401764
H       0.93203943     -1.61348321     -0.83263010
H       2.87488505      1.09931399     -1.16306167
