27
CCCCC(C)(O)CC
C       3.54274761      0.33514318      0.63018317
C       2.28501931      1.00591598      0.10104349
C       1.11938561      0.01885533      0.00903324
C      -0.14175182      0.70451973     -0.52403702
C      -1.38159574     -0.20622960     -0.66324158
C      -1.16822454     -1.28269186     -1.73543403
O      -2.46858831      0.61884888     -1.10826055
C      -1.82533892     -0.87648400      0.65339567
C      -2.11105582      0.09543228      1.79301477
H       3.85677891     -0.48289285     -0.02595835
H       4.36234431      1.05822710      0.68770627
H       3.37797141     -0.07210113      1.63284517
H       2.49309877      1.43013232     -0.88811728
H       2.01675148      1.83840076      0.76190640
H       0.92965202     -0.40201320      1.00236884
H       1.40359451     -0.81029050     -0.64808867
H       0.08044940      1.14892366     -1.50433624
H      -0.39090190      1.56275088      0.11374858
H      -0.86232072     -0.83232111     -2.68662331
H      -0.41143415     -2.01525074     -1.43934091
H      -2.10265600     -1.81950389     -1.93695099
H      -2.21451613      1.01838467     -1.95773335
H      -2.75082606     -1.43848698      0.47012172
H      -1.07658732     -1.60515668      0.98512527
H      -1.20515178      0.61945626      2.11085198
H      -2.86063328      0.83926972      1.50644531
H      -2.49621087     -0.45083821      2.66033239
