16
CC1CCCO1
C      -2.08358244     -0.13039529     -0.24394616
C      -0.62955225     -0.11317465     -0.67389720
C       0.28283538     -0.91046115      0.24202464
C       1.60773769     -0.22657715      0.01559321
C       1.19362732      1.22436717     -0.10917216
O      -0.13214436      1.23554594     -0.65931308
H      -2.20371089      0.30396078      0.75455839
H      -2.68876766      0.47850123     -0.92401044
H      -2.48261312     -1.14897626     -0.23563502
H      -0.54442561     -0.47814518     -1.70454981
H      -0.01513735     -0.79698747      1.29144896
H       0.29814558     -1.97744735      0.00319746
H       2.33362072     -0.39613856      0.81504213
H       2.04835703     -0.57246570     -0.92700032
H       1.15049982      1.70971324      0.87159898
H       1.86511014      1.79868040     -0.75355904
