41
CCN(CC)C(=O)C(C)Oc1cccc2ccccc12
C       3.88196847     -1.73170104      0.08266074
C       3.98423916     -0.21331201      0.03082182
N       2.70079747      0.44512649     -0.23098952
C       2.33530443      0.69205458     -1.62915152
C       1.55536125     -0.45050869     -2.26293061
C       1.84943336      0.64775620      0.86229991
O       2.18499651      0.31301741      2.00451095
C       0.48602427      1.33879786      0.61941096
C       0.69484235      2.84974752      0.69871610
O      -0.49008059      1.00567525      1.62064308
C      -1.23058506     -0.08920060      1.24294712
C      -0.71871575     -1.36112849      1.50597929
C      -1.44594927     -2.48677622      1.13689587
C      -2.69217878     -2.34011987      0.52555877
C      -3.23392127     -1.06761548      0.28288500
C      -4.49799215     -0.92325884     -0.31716134
C      -5.04244645      0.34181380     -0.55340202
C      -4.33205677      1.47935433     -0.18792025
C      -3.07668977      1.35337375      0.41239699
C      -2.50170332      0.08504160      0.65260746
H       4.84099061     -2.16072701      0.39420458
H       3.11593569     -2.05951940      0.79325791
H       3.63478352     -2.15035632     -0.89572728
H       4.70785155      0.09567054     -0.73108844
H       4.37323623      0.14436406      0.99281108
H       1.73927526      1.60661161     -1.68645046
H       3.24821284      0.88900006     -2.20316265
H       2.17648423     -1.34320411     -2.37800226
H       0.68132966     -0.72906663     -1.66742005
H       1.20926507     -0.15794394     -3.26031476
H       0.09564329      1.09502868     -0.37492741
H      -0.24436175      3.37739857      0.49728024
H       1.01627468      3.14347155      1.70561649
H       1.44993888      3.19851188     -0.01242652
H       0.24057704     -1.47677669      2.00637741
H      -1.04786129     -3.48148628      1.33652537
H      -3.24832140     -3.23424815      0.25144974
H      -5.07370761     -1.80122628     -0.60236669
H      -6.02485037      0.43722434     -1.01022279
H      -4.75624306      2.46378200     -0.35905595
H      -2.54510117      2.25535396      0.70686363
