28
CCOC(=O)N1CCN(C)CC1
C       4.21992980      1.75514623      0.61770178
C       3.63992724      0.47694080      0.04407157
O       2.21847828      0.51773054      0.21247131
C       1.56378282     -0.57792248     -0.26108332
O       2.12931475     -1.52797594     -0.79045004
N       0.19431419     -0.49469138     -0.08158232
C      -0.41095713      0.50179207      0.80246142
C      -1.89136388      0.76216172      0.46805688
N      -2.67733515     -0.48581261      0.38990836
C      -4.07042589     -0.19712054      0.05409424
C      -2.07436644     -1.38089197     -0.61944954
C      -0.60131353     -1.69765047     -0.30828076
H       5.30827896      1.77151773      0.51241954
H       3.80198984      2.63025071      0.10913267
H       3.96549597      1.85178477      1.67838751
H       3.88506224      0.40607418     -1.02157451
H       4.05182689     -0.38709246      0.57747096
H       0.13934006      1.44662554      0.74560808
H      -0.31362774      0.12498091      1.82816522
H      -1.94886124      1.30489077     -0.48523207
H      -2.30914574      1.41596097      1.24297119
H      -4.52454235      0.44189879      0.81945170
H      -4.17011518      0.30301115     -0.91603808
H      -4.65763803     -1.12167056      0.02711508
H      -2.62959605     -2.32576125     -0.65648900
H      -2.13688231     -0.92347197     -1.61612480
H      -0.52971765     -2.30904035      0.60008781
H      -0.17185271     -2.28166489     -1.12990136
