13
NC(=S)SCC(=O)O
N       1.79856539      0.02391059     -0.93975648
C       1.76232421     -0.55352840      0.28579818
S       2.88779205     -0.21215242      1.45218501
S       0.44280361     -1.67183438      0.44677318
C      -0.87653973     -0.51289447      0.90766600
C      -1.36911735      0.29556184     -0.27089774
O      -0.97885047      0.27116473     -1.42776473
O      -2.36983703      1.13169006      0.08284747
H       1.04815003     -0.13711932     -1.60732147
H       2.50709685      0.70946241     -1.16352811
H      -1.71563671     -1.10063314      1.29175183
H      -0.52416336      0.16443621      1.69093719
H      -2.61258749      1.59193631     -0.74869032
