43
CCCCCCCCC1(CC)C(=O)NC(=O)NC1=O
C       5.92599689      2.15481363     -0.66135547
C       5.45826030      0.71433236     -0.79533991
C       4.02917523      0.53888642     -0.27966616
C       3.56389010     -0.91204309     -0.42118319
C       2.18153954     -1.17027707      0.18504694
C       1.05137364     -0.43965341     -0.54361480
C      -0.31701626     -0.82224936      0.03081052
C      -1.44802848     -0.09037982     -0.70475079
C      -2.88378932     -0.33281481     -0.14257750
C      -3.21880754     -1.84394809     -0.10215688
C      -4.64554914     -2.17081099      0.33854088
C      -2.95764031      0.28599453      1.24748216
O      -2.83027459     -0.34922014      2.29106194
N      -3.12708217      1.64195469      1.28667087
C      -3.83017207      2.33071424      0.34932224
O      -4.36940655      3.40047779      0.61225858
N      -3.98290105      1.73899805     -0.86532665
C      -3.81766948      0.40102397     -1.09880768
O      -4.35381037     -0.12377313     -2.07181052
H       5.91261649      2.47585017      0.38510761
H       6.94958816      2.25724926     -1.03508563
H       5.28511025      2.83058183     -1.23662657
H       6.13923594      0.06234084     -0.23598902
H       5.51337479      0.41459872     -1.84836196
H       3.36284872      1.20396790     -0.84019759
H       3.97960445      0.84027118      0.77361396
H       3.56054113     -1.19864991     -1.47988524
H       4.28454307     -1.56934972      0.08118709
H       2.18518236     -0.88479700      1.24404595
H       1.99039265     -2.25008300      0.15019718
H       1.08253389     -0.68570204     -1.61183068
H       1.18631482      0.64394662     -0.45415659
H      -0.44782363     -1.90575948     -0.06207322
H      -0.33874964     -0.57752556      1.09838157
H      -1.22472396      0.98549459     -0.69752537
H      -1.42287140     -0.38981863     -1.76200407
H      -3.05631500     -2.28668813     -1.09317568
H      -2.54327127     -2.36367710      0.58764140
H      -4.85822810     -1.78745576      1.34046852
H      -5.39044964     -1.76186203     -0.34933937
H      -4.78403249     -3.25688116      0.36379317
H      -3.17874677      2.03773283      2.21632491
H      -4.61476316      2.21418982     -1.49611735
