28
Cc1oncc1C(=O)Nc1ccc(C(F)(F)F)cc1
C       4.60705123     -0.41260246      1.22221534
C       4.08086378     -0.27128252     -0.15090982
O       5.00535815     -0.27121025     -1.14820747
N       4.36784937     -0.13118618     -2.36658260
C       3.06893320     -0.04885823     -2.07427427
C       2.81324025     -0.13354723     -0.68617622
C       1.57484769     -0.09169322      0.07849220
O       1.60006445     -0.14330451      1.30267345
N       0.42785358      0.00375237     -0.69244412
C      -0.90923592      0.07028891     -0.24211777
C      -1.90729365      0.15026380     -1.22223855
C      -3.25872397      0.22014218     -0.86656303
C      -3.64177396      0.20510649      0.48052023
C      -5.09675794      0.30324118      0.86938245
F      -5.51318946      1.59350228      0.99110351
F      -5.93000466     -0.27388129     -0.04145426
F      -5.37668255     -0.29613416      2.05989115
C      -2.64174368      0.13483584      1.45902696
C      -1.28935370      0.06499248      1.10045889
H       5.69702907     -0.51356857      1.22267542
H       4.18708943     -1.30046161      1.70470849
H       4.35020971      0.46488341      1.82345310
H       2.37983459      0.07056793     -2.89722039
H       0.54010447      0.01891444     -1.69469617
H      -1.65267597      0.16074027     -2.27942934
H      -4.01395002      0.28469839     -1.64908621
H      -2.90745471      0.13210537      2.51591711
H      -0.56148879      0.00969488      1.90427462
