47
C[Si](C)(C)O[Si](C)(C)O[Si](C)(C)O[Si](C)(C)C
C       3.60186862      1.70551374      1.49917674
Si      2.63367215      1.19640688     -0.02861304
C       1.86889609      2.74126912     -0.78218144
C       3.83138752      0.46357786     -1.27737760
O       1.43594023      0.10484309      0.35833438
Si      1.17503652     -1.37674119      1.07006681
C       2.24923593     -2.69838337      0.28069080
C       1.59678264     -1.31011411      2.89928759
O      -0.43790726     -1.75462107      0.88416088
Si     -1.62525924     -1.78326379     -0.28437505
C      -3.12148423     -2.72341677      0.35788254
C      -1.02390848     -2.67092698     -1.82770607
O      -2.04104674     -0.21342450     -0.66087033
Si     -2.67564838      1.16856479      0.02756542
C      -4.51289955      0.94907942      0.37171552
C      -1.82203037      1.60143898      1.64433890
C      -2.47235191      2.62247147     -1.15029293
H       4.11726632      0.84503582      1.93560094
H       4.35187702      2.46052390      1.24562596
H       2.93293918      2.12614678      2.25575708
H       1.31549457      2.48988233     -1.69171447
H       2.64365249      3.46923276     -1.03983938
H       1.17626139      3.20955683     -0.07668284
H       4.34615174     -0.40524846     -0.85723323
H       4.58586499      1.20140203     -1.56585162
H       3.29952550      0.14538320     -2.17885978
H       3.30899238     -2.49382096      0.45881660
H       2.08542513     -2.73748590     -0.80009862
H       2.01683732     -3.68241494      0.69843326
H       2.65851661     -1.09233279      3.04613613
H       1.01330147     -0.53117941      3.39896794
H       1.37397359     -2.26728378      3.37985309
H      -2.85881695     -3.76428226      0.56854086
H      -3.49439359     -2.27138364      1.28152922
H      -3.92836402     -2.71442694     -0.38072210
H      -0.71349240     -3.69242945     -1.58915189
H      -0.17157548     -2.14575228     -2.26868331
H      -1.81964051     -2.71941187     -2.57688363
H      -4.94008568      1.87013824      0.77905093
H      -5.04810025      0.69860662     -0.54887207
H      -4.67701233      0.14545482      1.09531927
H      -2.27052897      2.49585257      2.08690064
H      -0.75943253      1.79987288      1.48043101
H      -1.91347150      0.78225921      2.36351871
H      -2.89101354      3.53378098     -0.71342564
H      -1.41400331      2.79714429     -1.36405389
H      -2.98643219      2.42490585     -2.09543583
