41
CCN(CCC#N)c1ccc(N=Nc2ccc([N+](=O)[O-])cc2)cc1
C      -3.75718539      2.74781744     -0.67073243
C      -4.26462559      1.33547376     -0.93159957
N      -3.82096491      0.38979246      0.11825936
C      -4.62479682     -0.85694850      0.16513579
C      -4.41765002     -1.62602067      1.47245503
C      -5.32229399     -2.77854913      1.52649757
N      -6.04246396     -3.68791930      1.55587557
C      -2.43105407      0.14279101      0.06689170
C      -1.64048077      0.59110077      1.13279301
C      -0.26017324      0.37079735      1.14430213
C       0.36193559     -0.29485870      0.08242601
N       1.74361326     -0.55935612      0.07767482
N       2.39664899      0.50773352      0.07959727
C       3.77639832      0.23955950      0.06238812
C       4.54421922      0.67117884     -1.02653273
C       5.92412286      0.44531598     -1.06459601
C       6.54376285     -0.21291270      0.00576536
N       7.99222619     -0.45354690     -0.02696587
O       8.61955389     -0.05776185     -1.01968747
O       8.50135828     -1.03748389      0.94020400
C       5.79304958     -0.63953954      1.10880779
C       4.41422421     -0.40627628      1.13246684
C      -0.42542336     -0.75293040     -0.97744603
C      -1.80714526     -0.53259929     -0.98953534
H      -4.19598811      3.44451720     -1.39214033
H      -4.02785637      3.08262937      0.33610282
H      -2.66894654      2.81177158     -0.76808278
H      -3.96933946      0.99821244     -1.93264610
H      -5.36084304      1.38016331     -0.92831971
H      -5.68719123     -0.58526623      0.09667934
H      -4.42075516     -1.49548062     -0.70468850
H      -4.60373095     -0.96628733      2.32803785
H      -3.38322760     -1.97648004      1.55864186
H      -2.10589672      1.11955790      1.96142443
H       0.33316008      0.72302646      1.98366573
H       4.05777079      1.18505078     -1.85297853
H       6.49333384      0.78727383     -1.92667999
H       6.25892765     -1.14805851      1.95040646
H       3.82696468     -0.73068715      1.98904866
H       0.04294138     -1.28190519     -1.80348043
H      -2.38617908     -0.89289521     -1.83512085
