15
Cc1cc[n+]([O-])cc1
C       2.21450136     -0.04727776      0.38033252
C       0.73145430     -0.01829664      0.15058705
C       0.03995661      1.19528955      0.14258084
C      -1.33336635      1.20943084     -0.10335557
N      -2.03451825      0.04377151     -0.35255316
O      -3.28277505      0.07133995     -0.57549439
C      -1.34022656     -1.15222778     -0.35698134
C       0.03300300     -1.19851730     -0.11449722
H       2.74257100      0.05355345     -0.57281590
H       2.52258607      0.76729861      1.04424142
H       2.51749413     -0.98600913      0.85594224
H       0.55755646      2.13360516      0.32684241
H      -1.95070566      2.09408856     -0.12512094
H      -1.96262272     -2.00853064     -0.56571403
H       0.54509168     -2.15751837     -0.13399391
