30
OCC(O)C(O)C(O)C(O)C(O)CO
O      -4.12469123      1.74384773     -1.30775155
C      -2.69537247      1.76322367     -1.24496594
C      -2.23438679      0.39933074     -0.72245139
O      -2.84566217      0.17918654      0.56601610
C      -0.70357509      0.30595930     -0.58178193
O      -0.26018758      1.35139978      0.30241077
C      -0.27674537     -1.05708874     -0.00046268
O      -0.67186883     -1.15572819      1.38487022
C       1.23354892     -1.37842356     -0.08579617
O       1.39763128     -2.69688776      0.46808098
C       2.17718181     -0.39401251      0.63667375
O       2.27251360      0.85816772     -0.06628063
C       3.60830770     -0.94343012      0.73122672
O       4.45607183      0.05201745      1.31421717
H      -4.40160777      2.61306377     -1.65116686
H      -2.41212287      2.57166402     -0.56403334
H      -2.29742706      1.96174667     -2.24439484
H      -2.60528521     -0.39378085     -1.38205220
H      -3.77714805      0.46581907      0.43973355
H      -0.23653064      0.46528854     -1.55979537
H      -0.70606496      1.16416831      1.15742381
H      -0.81106091     -1.85902399     -0.52603322
H      -1.62822834     -0.92368268      1.40927395
H       1.51532997     -1.43054707     -1.14426031
H       0.87645483     -2.69405908      1.29814312
H       1.82786093     -0.17820959      1.65335130
H       1.43863589      1.34234898      0.12400993
H       4.01012873     -1.16860310     -0.26217938
H       3.66367821     -1.84242991      1.35119656
H       4.21062165      0.87867485      0.85196414
