40
O=C(C=CC=Cc1ccc2c(c1)OCO2)N1CCCCC1
O      -2.42396660     -2.29113032     -0.98804925
C      -2.45400379     -1.10202643     -0.67729951
C      -1.18775225     -0.36100340     -0.42222254
C      -0.05470444     -1.03912694     -0.18447139
C       1.21749136     -0.39083341      0.04800265
C       2.34795051     -1.07905354      0.27134807
C       3.65690165     -0.45086123      0.50079621
C       3.80127068      0.69639730      1.31393193
C       5.05939106      1.26506243      1.54463179
C       6.15082073      0.66193586      0.96102837
C       6.02306362     -0.46222053      0.18097132
C       4.79618320     -1.04457014     -0.06299059
O       7.21942487     -0.90273645     -0.29337602
C       8.11389462      0.07515440      0.27672822
O       7.44213892      1.07102401      1.07599230
N      -3.63463285     -0.38076224     -0.56500211
C      -3.74392622      0.96483243      0.00502921
C      -5.13764287      1.25508542      0.55167567
C      -6.22343994      1.05999462     -0.50442899
C      -5.89223969     -0.04728350     -1.50498219
C      -4.88023018     -1.04325867     -0.95148597
H      -1.19750706      0.71803631     -0.47381764
H      -0.07392598     -2.12858585     -0.16291422
H       1.23396699      0.69648837      0.02152405
H       2.34318570     -2.16723724      0.26672635
H       2.93096689      1.14817478      1.78498133
H       5.17319066      2.14540171      2.16667005
H       4.72863760     -1.93222459     -0.68299137
H       8.84565216     -0.44415816      0.90627217
H       8.64635272      0.58004971     -0.53756933
H      -3.49145623      1.67625190     -0.78991399
H      -3.01225119      1.08266209      0.81094921
H      -5.18574717      2.27413437      0.95141980
H      -5.33695025      0.57877435      1.39313924
H      -7.17124316      0.83615052     -0.00022024
H      -6.38321160      1.99638789     -1.05264567
H      -5.47851335      0.41054186     -2.41292374
H      -6.81084761     -0.56351635     -1.80542419
H      -5.27687554     -1.54572201     -0.06117618
H      -4.67941596     -1.81622931     -1.70141221
