21
C[C@@H](C[C@@H](C)C(=O)[O-])C(=O)[O-]
C       1.68722815     -1.19420981     -0.32719895
C       1.03883564      0.12407335     -0.75662949
C       0.16041215      0.73299191      0.35776590
C      -1.34499784      0.41788894      0.21591779
C      -1.67177165     -1.07331325      0.23607013
C      -2.21148388      1.01904963      1.34504959
O      -3.24740402      1.63595749      0.95010289
O      -1.83940017      0.79221666      2.53220291
C       2.24457651      0.98619969     -1.19495033
O       2.87438993      1.59728419     -0.28597112
O       2.49868749      0.94720901     -2.43827633
H       2.33014048     -1.05872843      0.55028418
H       2.30905562     -1.60990809     -1.12857454
H       0.93786865     -1.94854059     -0.07462410
H       0.42317266     -0.05141056     -1.64812090
H       0.52066492      0.40604107      1.34148973
H       0.26744885      1.82564001      0.35104887
H      -1.69395375      0.83518863     -0.73803729
H      -1.30141077     -1.56785740     -0.66717759
H      -1.22828400     -1.57037030      1.10588054
H      -2.75377495     -1.24540216      0.27374810
