46
O=C1c2cccc(Sc3ccccc3)c2C(=O)c2c(Sc3ccccc3)cccc21
O      -0.25428895     -4.55774901      0.25958192
C       0.00316148     -3.36061159      0.29879837
C       1.17436168     -2.87001034      1.04792123
C       2.11600551     -3.80018406      1.50750540
C       3.24942101     -3.36290148      2.18188062
C       3.44989399     -1.99758833      2.37808492
C       2.51544333     -1.05102077      1.91768375
S       2.97088331      0.66484178      2.16928995
C       3.26423261      1.17530470      0.48480644
C       4.30573209      0.62260063     -0.26853295
C       4.51491105      1.03153389     -1.58757307
C       3.68811557      1.99831527     -2.15771671
C       2.65622722      2.56069927     -1.40862642
C       2.44864795      2.15373726     -0.08938140
C       1.34708618     -1.49995602      1.27005148
C       0.23598995     -0.60057882      0.86933895
O       0.00373105      0.41246375      1.51450083
C      -0.67158558     -1.01682930     -0.22992891
C      -1.42755936     -0.11162177     -1.00211683
S      -1.27246341      1.67429525     -0.92677678
C      -2.84881089      2.11803666     -0.21933497
C      -3.12996093      1.85725575      1.12518008
C      -4.36688471      2.21132330      1.66785274
C      -5.32609238      2.83417404      0.87091823
C      -5.04776862      3.10891640     -0.46715291
C      -3.81060240      2.75534601     -1.01031470
C      -2.31761396     -0.61795543     -1.96932952
C      -2.47306109     -1.98950295     -2.16245020
C      -1.71959534     -2.87810983     -1.40656755
C      -0.81579225     -2.39135880     -0.45322138
H       1.96732162     -4.86578066      1.33883929
H       3.98178117     -4.08071690      2.54429790
H       4.35342493     -1.67194506      2.89262304
H       4.96509883     -0.12493810      0.16444718
H       5.32566770      0.59928183     -2.16826302
H       3.85035126      2.31808201     -3.18386821
H       2.00915098      3.31583615     -1.84778798
H       1.63554481      2.59591062      0.48408111
H      -2.38526124      1.38583508      1.76306527
H      -4.57632195      2.00593353      2.71448738
H      -6.28728836      3.11241455      1.29552399
H      -5.79170293      3.60304370     -1.08655444
H      -3.60393269      2.98286437     -2.05295058
H      -2.90266617      0.06156480     -2.58770562
H      -3.17205399     -2.36065312     -2.90841943
H      -1.83087809     -3.94959823     -1.56618650
