37
CCN(CC)C(=S)[S-].CCN(CC)C(=S)[S-].[Zn+2]
C      -2.27440531      0.52972052      0.14739178
C      -1.08725655     -0.27033502      0.66541418
N       0.02259914     -0.31767832     -0.29348306
C       1.05622762      0.70651636     -0.10337094
C       2.22165153      0.21184327      0.74211360
C       0.08876343     -1.24776700     -1.29081731
S       1.34181797     -1.21215053     -2.46596215
S      -1.07755892     -2.50259395     -1.42303144
C       1.92750136     -1.28878670     -0.29553344
C       1.03202259     -0.45144936      0.60709710
N      -0.33156313     -0.31763074      0.08151956
C      -0.57677364      0.88756819     -0.71902533
C      -1.15352587      2.03024045      0.10524098
C      -1.30230659     -1.24758390      0.32018879
S      -1.01897713     -2.59252687      1.35132049
S      -2.85813836     -1.12167317     -0.39808220
Zn      0.00000000      0.00000000      0.00000000
H      -1.97827552      1.55768988     -0.08684803
H      -2.69813092      0.09421395     -0.76174237
H      -3.06320119      0.56826793      0.90511185
H      -1.38213625     -1.27390238      0.98662646
H      -0.72342256      0.21063213      1.58274689
H       0.59740063      1.56087754      0.41116632
H       1.39324320      1.11779687     -1.05969086
H       2.73650787     -0.63367069      0.27760995
H       1.87562445     -0.11471682      1.72847324
H       2.95055136      1.01525625      0.88722695
H       2.94097528     -1.33402486      0.11513542
H       1.98671410     -0.85204668     -1.29804723
H       1.55927715     -2.31268773     -0.40403218
H       1.46654221      0.55375089      0.68435486
H       1.02993804     -0.82342168      1.63613127
H      -1.19286152      0.66734160     -1.59607429
H       0.38240284      1.21750165     -1.13893966
H      -2.12231785      1.77330730      0.54246191
H      -1.28824112      2.91731132     -0.52148242
H      -0.48066837      2.29481028      0.92776635
