42
O=C1CCCCCCCCCCC(=O)OCCO1
O      -0.91654960      4.51229996      0.72726626
C      -0.34015488      3.43075312      0.77290566
C      -0.86993619      2.18647757      0.09498426
C      -2.18367627      2.42473673     -0.64858195
C      -2.64536126      1.23248633     -1.49879114
C      -2.83314886     -0.07658651     -0.72175628
C      -1.59216706     -0.97635998     -0.76609353
C      -1.74710424     -2.19107347      0.14681712
C      -0.57970287     -3.18217871      0.07126597
C       0.77622767     -2.61506301      0.51435577
C       1.65397611     -2.18021351     -0.66573229
C       3.03404967     -1.69834037     -0.22303250
C       3.00554379     -0.39529719      0.53696748
O       3.43007198     -0.25397467      1.67517970
O       2.47808768      0.60316861     -0.22293609
C       2.52912401      1.91980189      0.35800487
C       1.57027887      2.06561715      1.54072039
O       0.83185766      3.30515538      1.44926748
H      -1.04541137      1.43357984      0.86840092
H      -0.11973853      1.84024306     -0.62141341
H      -2.96819054      2.67932534      0.07545888
H      -2.08300062      3.29586643     -1.30828121
H      -3.61113385      1.50804969     -1.94140522
H      -1.95436175      1.08402594     -2.33731032
H      -3.12415587      0.13434161      0.31398360
H      -3.66598159     -0.63089632     -1.17303682
H      -0.71006712     -0.41113068     -0.46076029
H      -1.42208797     -1.30779336     -1.79756382
H      -2.66794576     -2.72576429     -0.11750053
H      -1.86732193     -1.85509407      1.18431218
H      -0.82816119     -4.01808948      0.73806317
H      -0.51361383     -3.60567829     -0.93791920
H       0.63512689     -1.78951240      1.22125752
H       1.31173026     -3.40368194      1.05858904
H       1.79216279     -3.03668597     -1.33737369
H       1.15490219     -1.40237069     -1.25109540
H       3.68268746     -1.55717480     -1.09545782
H       3.51494086     -2.45487072      0.40792224
H       3.55989675      2.14540373      0.65789297
H       2.27813410      2.62514940     -0.44130849
H       2.15035422      2.13119873      2.46785017
H       0.89982021      1.21014992      1.66049396
