22
O=C(O)C1=CC(O)C(O)C(O)C1
O       3.46555203      0.79489722     -0.29517237
C       2.68995701     -0.05044991     -0.70549058
O       3.09913790     -1.03446665     -1.52016634
C       1.25043527     -0.11492540     -0.36574716
C       0.43458693     -1.05596205     -0.87938947
C      -1.02656337     -1.13478881     -0.56510305
O      -1.72948514     -1.37567729     -1.78193868
C      -1.57243164      0.14500785      0.08830645
O      -2.86661033     -0.12112786      0.65314299
C      -0.61953885      0.63434280      1.18264539
O      -1.18566255      1.80971749      1.77782131
C       0.76570558      0.93657887      0.59859955
H       4.05145609     -0.85169330     -1.65544895
H       0.81287265     -1.81418988     -1.56155412
H      -1.20784091     -2.00225749      0.08051239
H      -2.67532201     -1.32198717     -1.54513136
H      -1.73191058      0.92905319     -0.66319601
H      -3.06168221      0.66630338      1.20155678
H      -0.54982423     -0.11915489      1.97720901
H      -0.55995972      2.12496003      2.45506650
H       1.46891134      1.04657739      1.43392236
H       0.74821676      1.90924248      0.08955536
