32
CC(CC=O)CCCC(C)(C)O
C       2.51853046     -1.73971411     -0.35423736
C       2.40807895     -0.21923912     -0.20763771
C       3.63344792      0.30675332      0.55720297
C       3.75700042      1.80406666      0.43341763
O       3.81761016      2.55722651      1.40009725
C       1.10330176      0.19544457      0.50702597
C      -0.16504637     -0.17229036     -0.27278629
C      -1.41980396      0.36994209      0.42717519
C      -2.73436109      0.12853904     -0.34373911
C      -3.01661953     -1.35758326     -0.56871860
C      -3.90581812      0.76736028      0.40962913
O      -2.64693407      0.74689975     -1.62940343
H       1.72791898     -2.13827504     -0.99679150
H       3.47382273     -2.01789565     -0.81260784
H       2.45305361     -2.23768362      0.61902674
H       2.40607400      0.21934802     -1.21426140
H       4.55674306     -0.11578643      0.14456581
H       3.58502728      0.03532165      1.61763639
H       3.82309484      2.19779542     -0.59535772
H       1.10874228      1.28104481      0.66436689
H       1.06390482     -0.26515518      1.50245959
H      -0.23950723     -1.26060498     -0.35650362
H      -0.09732382      0.23486532     -1.28801575
H      -1.49281011     -0.07157971      1.42925908
H      -1.28745078      1.45164891      0.56345582
H      -3.03118098     -1.91228672      0.37494431
H      -2.27443299     -1.81158679     -1.23373683
H      -3.98452564     -1.49722430     -1.06455721
H      -4.83838893      0.66200112     -0.15653944
H      -4.04487357      0.31458008      1.39676039
H      -3.74636664      1.84366680      0.54172124
H      -2.51090743      1.70040092     -1.49385057
