50
CCCCCCCC[Si](OCC)(OCC)OCC
C       5.51554528      2.86326663      2.20567102
C       5.45963709      1.35177799      2.36468474
C       4.86420719      0.63138848      1.15312713
C       3.38587451      0.95264890      0.92311521
C       2.81286044      0.12793145     -0.23185715
C       1.33456502      0.44942812     -0.46347874
C       0.75959948     -0.38148630     -1.61566609
C      -0.68601744     -0.01590569     -1.97413062
Si     -2.04911358     -0.60915317     -0.79528207
O      -1.88012286      0.08819526      0.71100532
C      -2.21176102      1.46214554      0.87116271
C      -1.85276176      1.87200231      2.28835179
O      -3.55748011     -0.20427622     -1.38574288
C      -4.05499658     -0.89069196     -2.52844693
C      -5.42278751     -0.32221427     -2.86238511
O      -1.98156346     -2.26740209     -0.62143871
C      -2.66318869     -2.86321516      0.47661001
C      -2.54991140     -4.37118910      0.34069379
H       6.05329775      3.14314611      1.29434871
H       4.51351136      3.30005240      2.16512282
H       6.03715747      3.31112664      3.05767500
H       6.47945440      0.98067841      2.52212050
H       4.88871207      1.10065265      3.26614717
H       4.97630819     -0.44887660      1.30836831
H       5.44190682      0.88290820      0.25533533
H       2.81803456      0.74627572      1.83834976
H       3.26359225      2.01790690      0.69747619
H       2.92539048     -0.94074270     -0.01232410
H       3.38217590      0.33267886     -1.14663688
H       1.22296667      1.51711486     -0.68797035
H       0.78057792      0.25156167      0.45988098
H       0.83851895     -1.44997059     -1.37949881
H       1.37870925     -0.21062454     -2.50592040
H      -0.77572565      1.06951247     -2.09730291
H      -0.90950666     -0.45857018     -2.95228417
H      -3.28593271      1.61606014      0.71151690
H      -1.64905637      2.08493120      0.16474871
H      -2.09240875      2.92469144      2.46235881
H      -2.39637098      1.26038802      3.01597509
H      -0.78484082      1.71691110      2.47509377
H      -4.15319947     -1.96347553     -2.32222296
H      -3.38702209     -0.74785105     -3.38649183
H      -5.35517009      0.75204671     -3.06381414
H      -5.84851351     -0.81971874     -3.73829615
H      -6.10824552     -0.44606523     -2.01737411
H      -3.72348947     -2.58098505      0.47713023
H      -2.20586242     -2.55213922      1.42377104
H      -1.49916156     -4.67945455      0.33176397
H      -3.05918616     -4.87645170      1.16611368
H      -2.98920638     -4.70696851     -0.60454267
