39
CC1(C)COP(=S)(OP2(=S)OCC(C)(C)CO2)OC1
C      -5.37173616     -0.12079084     -0.15089933
C      -3.87706949      0.11790554      0.10124296
C      -3.68032287      0.61451835      1.54649991
C      -3.34680469      1.17353667     -0.88494905
O      -1.94869180      1.35055501     -0.72867659
P      -1.00801026      0.06627720     -0.97914539
S      -0.79309184     -0.56828263     -2.79040314
O       0.30402533      0.42840585     -0.14768338
P       1.45584382      1.45511972     -0.55245976
S       0.95438847      3.22320213     -1.13597321
O       2.38497235      1.44382944      0.77377711
C       2.93945266      0.21390622      1.20440623
C       3.80158263     -0.42545102      0.10616263
C       4.32439216     -1.78639402      0.58568183
C       4.99651025      0.48943083     -0.22121009
C       2.93275425     -0.61685914     -1.14526072
O       2.37141776      0.60959418     -1.57734027
O      -1.70152829     -0.99027581      0.03586734
C      -3.09991048     -1.19485333     -0.10423296
H      -5.54931340     -0.47561513     -1.17230312
H      -5.77392145     -0.87258472      0.53735385
H      -5.94818212      0.80091209     -0.01371914
H      -4.05266036     -0.12148194      2.26807625
H      -4.22458968      1.55030597      1.71701655
H      -2.62587054      0.79923108      1.77817013
H      -3.55726213      0.89209502     -1.92296775
H      -3.82682111      2.14295308     -0.71134851
H       2.12543315     -0.45258925      1.51212341
H       3.54024700      0.41656729      2.09800633
H       4.94198925     -1.67853319      1.48435002
H       4.93617114     -2.26887706     -0.18477700
H       3.49897983     -2.46498185      0.82856460
H       5.62338395      0.04963700     -1.00519135
H       4.67646925      1.47679413     -0.57061175
H       5.62757304      0.64072137      0.66189262
H       3.52841002     -1.01847667     -1.97250464
H       2.12246976     -1.33091008     -0.95923559
H      -3.40095873     -1.94291059      0.63756298
H      -3.29972066     -1.62563091     -1.09186159
