71
CC(O)CO.CCCCCCCC(=O)O.CCCCCCCCCC(=O)O
C       1.25676916     -0.41035269      0.45145845
C       0.36682292      0.26782049     -0.58060333
O       0.37933820      1.67327534     -0.32104928
C      -1.08014959     -0.23624134     -0.53808459
O      -1.68008465      0.09352120      0.71655654
C       3.60597307      0.79992108      0.42191418
C       3.13491457     -0.63467540      0.23970465
C       1.61902783     -0.80089012      0.37520239
C       0.83317217     -0.07875018     -0.72249795
C      -0.66127543     -0.41875172     -0.72295800
C      -1.39194002      0.05761722      0.53730707
C      -2.89697809     -0.20443388      0.47067904
C      -3.61477705      0.72800692     -0.46893789
O      -3.18699710      1.75103307     -0.97415232
O      -4.87941539      0.32590034     -0.70528573
C      -4.30539621      1.15355302      1.35363257
C      -3.78955701     -0.19115282      0.86643904
C      -2.46555670     -0.04465993      0.11503925
C      -1.95031104     -1.40209269     -0.36830412
C      -0.68701901     -1.30369793     -1.22848686
C       0.53562431     -0.79583710     -0.45930911
C       1.79039877     -0.82519823     -1.33627268
C       3.06465868     -0.42684162     -0.58687805
C       3.06772697      1.02970533     -0.12484651
C       4.39066448      1.41622090      0.48045337
O       5.35134002      0.69736870      0.69221782
O       4.42970957      2.72366911      0.80557861
H       1.26427527     -1.49610729      0.31715228
H       0.93435619     -0.18143963      1.47280240
H       2.28483299     -0.04213147      0.36308951
H       0.78227334      0.10741706     -1.58082314
H      -0.32777795      1.83053761      0.33631234
H      -1.14399274     -1.31724776     -0.69677423
H      -1.67116090      0.26659485     -1.31005990
H      -1.36550224     -0.55564636      1.37002296
H       4.69989791      0.84050439      0.40746214
H       3.24032322      1.44715788     -0.38058770
H       3.26462799      1.20730813      1.37877671
H       3.62198674     -1.26042117      0.99713308
H       3.46543759     -1.00592085     -0.73732956
H       1.30696958     -0.44121274      1.36225983
H       1.38723109     -1.87237808      0.33828253
H       0.95352915      1.00599129     -0.62206995
H       1.24618297     -0.35535394     -1.70041510
H      -0.79080066     -1.50194186     -0.83717349
H      -1.11231892      0.04562930     -1.60775667
H      -1.19998868      1.12523192      0.69805911
H      -0.99554592     -0.47568566      1.40877117
H      -3.33070178     -0.05733510      1.46617654
H      -3.08203304     -1.23838446      0.15924915
H      -5.23650181      1.01183363     -1.30765440
H      -3.59093734      1.62371295      2.03690363
H      -4.47805929      1.83483393      0.51434875
H      -5.25219434      1.02541565      1.88757479
H      -3.65783969     -0.85888510      1.72579121
H      -4.54104113     -0.64825302      0.21217757
H      -1.72883188      0.42323570      0.77748612
H      -2.60289005      0.62392069     -0.74333119
H      -2.73160933     -1.88931596     -0.96493348
H      -1.75885841     -2.05380784      0.49285329
H      -0.87860208     -0.65331689     -2.09063375
H      -0.46939613     -2.30186134     -1.62848035
H       0.35333615      0.22741426     -0.11655141
H       0.69458862     -1.41721080      0.42999346
H       1.92948239     -1.83990050     -1.72960527
H       1.65218211     -0.16703068     -2.20274066
H       3.21003249     -1.09027117      0.27488889
H       3.92099465     -0.59614019     -1.25224412
H       2.29511483      1.19240758      0.63317088
H       2.87814586      1.68845121     -0.97942265
H       5.32409974      2.84556480      1.18767378
