59
C[C@H](Oc1ccc(S(C)(=O)=O)cc1C(=O)N1Cc2ccc(N3CCOCC3)cc2C1)C(F)(F)F
C      -2.72336186     -3.44251408     -2.27250348
C      -3.50269377     -2.24236389     -1.73776886
O      -2.50817949     -1.28507685     -1.31053225
C      -2.97506106     -0.01222482     -1.12755766
C      -3.56090979      0.70420698     -2.17515300
C      -4.02123980      2.00698694     -1.96267235
C      -3.88504475      2.59259938     -0.70047312
S      -4.46573356      4.24837492     -0.41830720
C      -5.95394017      4.01351476      0.51861701
O      -4.82983028      4.80718622     -1.70677381
O      -3.48308538      4.90106414      0.42473013
C      -3.25607719      1.90876472      0.34050041
C      -2.78567258      0.61169975      0.11331840
C      -2.16511556     -0.09423471      1.24928889
O      -2.88410256     -0.38411040      2.20104481
N      -0.81366984     -0.34375459      1.20366218
C      -0.15268936     -1.01777891      2.31698769
C       1.29279581     -0.97519858      1.94153671
C       2.38224978     -1.47299349      2.62574624
C       3.65142995     -1.30312064      2.05843450
C       3.85117876     -0.63745088      0.82392878
N       5.15794042     -0.51656823      0.31834392
C       6.06489251      0.26370121      1.19760593
C       7.51438705      0.14126792      0.69712173
O       7.64154527      0.54501350     -0.67601115
C       6.80123375     -0.27287817     -1.50632750
C       5.32392935     -0.14423043     -1.10312918
C       2.71582357     -0.15862633      0.15007280
C       1.45812594     -0.32695676      0.71612117
C       0.13218067      0.10667516      0.17983394
C      -4.43819790     -2.68493675     -0.60650419
F      -5.18686806     -1.65580508     -0.14956189
F      -3.76557072     -3.21582524      0.43501086
F      -5.30454945     -3.62775776     -1.05397658
H      -2.06310205     -3.13304594     -3.09011085
H      -3.39390065     -4.22252332     -2.64566270
H      -2.08139804     -3.87196307     -1.49547951
H      -4.10064415     -1.84381111     -2.56528289
H      -3.65017549      0.27096923     -3.16808460
H      -4.47501237      2.55610051     -2.78629353
H      -5.71105252      3.51595589      1.45933289
H      -6.38571331      4.99620646      0.71998759
H      -6.65257724      3.41470736     -0.06884808
H      -3.12500814      2.36929114      1.31806557
H      -0.52984463     -2.04258030      2.38725505
H      -0.35013814     -0.46956470      3.24338095
H       2.26656052     -1.99058875      3.57228792
H       4.50662963     -1.72621955      2.58120971
H       5.76104961      1.31842230      1.17720247
H       6.03269663     -0.08178941      2.23634875
H       8.16735342      0.78673567      1.29303351
H       7.87855354     -0.88815622      0.79950063
H       7.13993281     -1.31405446     -1.44279443
H       6.93386757      0.05978298     -2.54071085
H       4.72727679     -0.80029394     -1.74756261
H       5.00572154      0.89520797     -1.25398715
H       2.79384234      0.35767855     -0.79957131
H      -0.08875635     -0.38720413     -0.76926529
H       0.06771903      1.19408786      0.07924318
