34
Nc1ccccc1C(=O)OCC=Cc1ccccc1
N      -4.90073408      1.65406112      0.31049300
C      -4.53798321      0.41211363     -0.24590190
C      -5.44346811     -0.20633989     -1.12103175
C      -5.10078456     -1.37014957     -1.81274279
C      -3.83026967     -1.91701866     -1.66814070
C      -2.89696615     -1.29241370     -0.84081242
C      -3.23388862     -0.11835029     -0.14223651
C      -2.23334195      0.53575298      0.74986073
O      -2.52144781      1.32476868      1.63865509
O      -0.97711816      0.13637208      0.42946409
C       0.04315401      0.74830618      1.22185748
C       1.35475010      0.18266601      0.77153863
C       2.36721097      0.92418642      0.29332871
C       3.65248670      0.37269407     -0.15717033
C       4.28478128     -0.68890602      0.50329493
C       5.52246916     -1.16494232      0.06212948
C       6.14494881     -0.57804554     -1.03744995
C       5.53356013      0.48810244     -1.69331563
C       4.29646411      0.96449045     -1.25165440
H      -5.88929887      1.74702121      0.51788912
H      -4.31264212      1.90966509      1.11112894
H      -6.42985436      0.22478795     -1.27615361
H      -5.82394866     -1.83906744     -2.47545563
H      -3.56038956     -2.82084800     -2.20881193
H      -1.90555503     -1.73008491     -0.74987665
H       0.01099817      1.83644760      1.09196651
H      -0.10740085      0.50077596      2.27901854
H       1.44749100     -0.89786464      0.84232451
H       2.25625537      2.00215113      0.19635227
H       3.82725646     -1.15007133      1.37479972
H       6.00171137     -1.99062856      0.58153018
H       7.10774796     -0.94805576     -1.37984974
H       6.01871960      0.95099098     -2.54862290
H       3.83508656      1.79743263     -1.77740456
