32
COc1cc(N)c2c(c1N)C(=O)c1ccccc1C2=O
C      -4.98795877      0.33383109      0.32142187
O      -3.91573717      0.31298047     -0.61215336
C      -2.63819916      0.35595392     -0.10322757
C      -2.32227330      0.64744934      1.22495635
C      -0.99076986      0.68099495      1.66050897
N      -0.75763467      0.81878925      3.04255876
C       0.03720410      0.35545105      0.74887707
C      -0.26897396      0.07378730     -0.59009233
C      -1.60962840      0.09690814     -1.03425186
N      -1.97164759     -0.36818945     -2.32105131
C       0.83291292     -0.21312689     -1.54654905
O       0.64430244     -0.22193653     -2.75975399
C       2.19013683     -0.46473231     -1.03290626
C       3.18435392     -0.95147790     -1.89203903
C       4.47638841     -1.17194382     -1.41205594
C       4.77995309     -0.90077549     -0.07856590
C       3.79164956     -0.40896770      0.77571409
C       2.49273863     -0.19431061      0.29580204
C       1.45622474      0.34262625      1.19365473
O       1.78499376      0.78379836      2.29158455
H      -4.89902071     -0.47953465      1.04933197
H      -5.91793184      0.18199175     -0.23492542
H      -5.05402284      1.30657032      0.81924549
H      -3.10306759      0.83620148      1.95454796
H      -1.39361702      1.44191527      3.52799738
H       0.22752439      1.03144568      3.24858707
H      -1.22160840     -0.24781530     -3.00950106
H      -2.87367507     -0.00656994     -2.62115820
H       2.95587636     -1.15876243     -2.93613966
H       5.24643773     -1.55125623     -2.08023466
H       5.78747846     -1.06819401      0.29581980
H       4.03759100     -0.19310134      1.81399751
