41
Nc1ccc(S(=O)(=O)Nc2ccn(Cc3ccccc3)c(=O)n2)cc1
N       5.61957598     -0.99595595     -1.85599521
C       4.96457352     -0.66025361     -0.66658856
C       4.72643524      0.68132585     -0.35014527
C       3.96640244      1.02805567      0.76956139
C       3.39806792      0.01974995      1.55094952
S       2.40032769      0.46311999      2.95095139
O       1.77426485     -0.73599820      3.46350594
O       3.20782450      1.31768177      3.79233572
N       1.22463416      1.42153636      2.27689397
C       0.31434498      1.16228877      1.24845775
C       0.00912819     -0.23007582      0.91153401
C      -0.84623502     -0.36996355     -0.10023119
N      -1.38200386      0.72698613     -0.73978711
C      -2.34076142      0.52841516     -1.82723537
C      -3.71624542      0.14967336     -1.32538894
C      -4.53535494      1.10877218     -0.71139367
C      -5.80036890      0.76083114     -0.23594079
C      -6.26015969     -0.54769045     -0.36863314
C      -5.45625073     -1.50967749     -0.97718778
C      -4.19008966     -1.16432641     -1.45333603
C      -1.07987953      2.03198711     -0.33804491
O      -1.58402148      3.00714281     -0.88915216
N      -0.18727285      2.20378737      0.69214699
C       3.58553948     -1.32378183      1.22279559
C       4.35015446     -1.65507589      0.10128264
H       6.27908684     -0.29318415     -2.17681162
H       6.02511025     -1.92701102     -1.85653460
H       5.13718824      1.47086972     -0.97511157
H       3.81654606      2.07695974      1.01365277
H       1.35139786      2.40715902      2.49865825
H       0.41114567     -1.07318987      1.44867087
H      -1.16102141     -1.35216593     -0.44002255
H      -1.94605191     -0.24966504     -2.49371382
H      -2.42362188      1.43172481     -2.44345765
H      -4.19074269      2.13611093     -0.60110291
H      -6.42612350      1.51275733      0.23812565
H      -7.24579863     -0.81684565      0.00197339
H      -5.81712166     -2.52973944     -1.08107288
H      -3.57853786     -1.92919504     -1.92603499
H       3.13899167     -2.11551297      1.81991519
H       4.46692308     -2.70200414     -0.16848832
