22
Clc1ccc(-c2ccccc2)c(Cl)c1Cl
Cl      5.24627387     -0.09295046      0.08571297
C       3.51823116      0.00359421      0.09275892
C       2.82308907     -1.05597958     -0.49210362
C       1.42965036     -1.04584703     -0.52265424
C       0.70190663      0.02193112      0.02986386
C      -0.76567645     -0.02824063     -0.03487446
C      -1.50799158     -0.62865500      0.99379761
C      -2.90179439     -0.68548439      0.92685215
C      -3.57003019     -0.14522485     -0.16988077
C      -2.84685703      0.45219790     -1.20010031
C      -1.45303224      0.50947779     -1.13400863
C       1.41246581      1.09217377      0.62083150
Cl      0.52388684      2.42339720      1.31013833
C       2.82167776      1.08477573      0.65325558
Cl      3.69943549      2.39914952      1.37916385
H       3.36090779     -1.89572864     -0.92751954
H       0.90332034     -1.88177323     -0.98349184
H      -1.00268622     -1.05207487      1.85935386
H      -3.46553989     -1.14840283      1.73273119
H      -4.65510207     -0.18664225     -0.22006172
H      -3.36772601      0.87722314     -2.05426424
H      -0.90440905      0.98308338     -1.94550045
