24
CC/C=C\CCOC(C)=O
C      -4.07044346     -0.48610440     -0.00589613
C      -2.88068197      0.44743438     -0.16203681
C      -1.81815558     -0.16137646     -1.03081366
C      -0.61057179     -0.61118856     -0.65292764
C      -0.04387426     -0.66082334      0.74164668
C       1.10246251      0.33237993      0.93415363
O       2.23595564     -0.09610568      0.16293225
C       3.31567068      0.72642469      0.25633506
C       4.43237250      0.20364364     -0.59420148
O       3.37924054      1.74266436      0.93320824
H      -3.77702026     -1.42152053      0.48251224
H      -4.84430933     -0.01285597      0.60695322
H      -4.51294798     -0.73217262     -0.97715915
H      -2.49661174      0.71811778      0.82590859
H      -3.21272319      1.38329540     -0.62687798
H      -2.06765167     -0.21953034     -2.09049228
H       0.04595830     -1.00786954     -1.42778241
H       0.31932648     -1.68088397      0.91690295
H      -0.81678333     -0.46771047      1.49131195
H       0.79795219      1.33927202      0.62339013
H       1.38398275      0.35029645      1.99370516
H       4.73441688     -0.78586805     -0.24214354
H       4.11380635      0.16039095     -1.63874883
H       5.29062973      0.87759983     -0.51988017
