25
CCC1(CC)C(=O)NC(=O)NC1=O
C      -0.69621563      2.46740949      0.70630582
C       0.11740424      1.62266904     -0.26822105
C      -0.10030540      0.08197590     -0.16906911
C      -1.59718556     -0.27855386     -0.33353134
C      -1.89561796     -1.77762947     -0.34750639
C       0.43475312     -0.38462525      1.17866600
O      -0.26723413     -0.57735106      2.16805730
N       1.79100171     -0.53612902      1.26036396
C       2.56266974     -0.91683472      0.20821564
O       3.63420186     -1.48981615      0.37500345
N       2.05313178     -0.71349504     -1.03587459
C       0.72609004     -0.51467749     -1.30286223
O       0.28224678     -0.75300673     -2.42347628
H      -0.42140710      3.52219573      0.59962547
H      -1.76900539      2.39038722      0.50852758
H      -0.50895199      2.17994614      1.74470163
H      -0.11822309      1.95817266     -1.28734867
H       1.17782625      1.86393801     -0.11459516
H      -1.98336517      0.15614231     -1.26439617
H      -2.18416141      0.15877209      0.48297049
H      -1.41436573     -2.28295252     -1.18915971
H      -2.97481074     -1.93797551     -0.44230637
H      -1.56936623     -2.26461346      0.57577338
H       2.13101332     -0.85159098      2.15948232
H       2.58987668     -1.12235733     -1.78934598
