62
CC(O)CN(CC(C)O)C(=O)CCCCC(=O)N(CC(C)O)CC(C)O
C       6.04444943     -3.13193159     -1.10019807
C       4.74632407     -2.34444530     -0.97886404
O       4.15351178     -2.31158997     -2.27774228
C       5.00941566     -0.92433901     -0.43382796
N       3.80237607     -0.31502140      0.15389247
C       3.65532167     -0.38210441      1.61088232
C       4.13955871      0.87641278      2.35790995
C       5.65173702      1.05889025      2.33192023
O       3.70513962      0.80106979      3.71920769
C       2.83598058      0.19491377     -0.70858812
O       2.98356468      0.12355904     -1.93002341
C       1.57947589      0.79507857     -0.09034256
C       0.68444353      1.46989622     -1.13345230
C      -0.48082397      2.25753917     -0.51955939
C      -1.52094832      1.40864818      0.21887663
C      -2.41874777      0.59680763     -0.70540494
O      -2.28662839      0.64990516     -1.92881380
N      -3.38935616     -0.21388830     -0.11594367
C      -4.15145573     -1.09418677     -1.02265365
C      -5.20338520     -0.34724356     -1.87406230
C      -5.32143988     -0.95190217     -3.26648865
O      -6.49897853     -0.43128573     -1.27302161
C      -3.66666060     -0.29618520      1.32858038
C      -4.94703935      0.42012033      1.80929454
C      -5.03206114      1.88372282      1.40388219
O      -6.10797910     -0.26438202      1.33433734
H       6.54091290     -3.23746790     -0.13000236
H       5.84871457     -4.13267441     -1.50162296
H       6.73460761     -2.64202826     -1.79696150
H       4.06063122     -2.88343574     -0.31525918
H       3.61303363     -1.49333655     -2.34344308
H       5.35889585     -0.27163824     -1.24324798
H       5.78729776     -0.94758464      0.33619231
H       2.60142075     -0.55362663      1.85575980
H       4.17739511     -1.27352634      1.98195109
H       3.67576257      1.77073864      1.93088732
H       6.01682625      1.24648540      1.31844007
H       5.94403717      1.90483293      2.96360669
H       6.16183901      0.17616778      2.73328744
H       4.29310265      0.18894012      4.19562672
H       1.86836555      1.53509686      0.66042087
H       1.02728670     -0.01475457      0.39644682
H       1.28950821      2.17068624     -1.72316231
H       0.31162403      0.72031402     -1.84061622
H      -0.97353674      2.82995810     -1.31534495
H      -0.07135957      2.99468409      0.18256866
H      -1.02317622      0.73653173      0.92258382
H      -2.16061358      2.09088757      0.78647792
H      -4.61558878     -1.89478060     -0.43537573
H      -3.41102463     -1.56752031     -1.68003641
H      -4.96000727      0.71618390     -1.96733324
H      -4.37713482     -0.87762937     -3.81407355
H      -6.09838996     -0.43742927     -3.84254343
H      -5.61586987     -2.00538509     -3.21240745
H      -6.36500963     -0.37963631     -0.30224590
H      -2.82263977      0.10890336      1.89149878
H      -3.72459337     -1.36234637      1.57955846
H      -4.97252351      0.35284195      2.90351690
H      -4.19275342      2.45719976      1.80606813
H      -5.96042198      2.32859543      1.77932858
H      -5.05493268      1.99881128      0.31569608
H      -6.87748031      0.11888316      1.79841522
