38
CCO[Si](CC(C)C)(OCC)OCC
C       2.26912771     -2.27210414     -2.79366346
C       1.65190857     -1.91885102     -1.45217833
O       1.04836519     -0.63537787     -1.56662632
Si      0.26572938      0.00514493     -0.23818957
C      -1.32142736     -0.97454282      0.13943727
C      -2.29459231     -0.36436946      1.16859108
C      -1.76945643     -0.46869584      2.60367053
C      -3.65156484     -1.06956417      1.07457822
O      -0.09517565      1.60168298     -0.56261913
C      -0.72869478      1.92287696     -1.79499741
C      -1.00811527      3.41518401     -1.80786669
O       1.31176256     -0.05103287      1.05995347
C       2.37849754      0.88920111      1.11383973
C       3.23560228      0.56138646      2.32347596
H       2.74774695     -3.25468326     -2.75594516
H       3.01641394     -1.52560631     -3.08260501
H       1.50593739     -2.28037934     -3.57892861
H       2.43766874     -1.90901065     -0.68688721
H       0.90275208     -2.67600381     -1.19026574
H      -1.03528829     -1.98706893      0.44873106
H      -1.83948337     -1.07739215     -0.82231852
H      -2.45652261      0.69666151      0.93877973
H      -0.85696351      0.11818721      2.74194483
H      -1.55108648     -1.50783734      2.87251990
H      -2.50957476     -0.08605416      3.31502559
H      -4.07604243     -0.96494301      0.07042396
H      -4.36587454     -0.63654919      1.78294592
H      -3.56004413     -2.13859132      1.29528103
H      -0.07487582      1.67174068     -2.63913916
H      -1.67591371      1.37911428     -1.89794259
H      -1.65295139      3.69358606     -0.96768932
H      -1.49535490      3.71257520     -2.74066099
H      -0.07797170      3.98259488     -1.69811152
H       2.99587951      0.83014086      0.20870770
H       1.98530435      1.90793491      1.21738724
H       2.63993582      0.60533560      3.24133281
H       4.07111222      1.26157446      2.41062560
H       3.63323007     -0.45626445      2.24938310
