49
Cc1ncc([N+](=O)[O-])n1CCOC(=O)c1ccc(CN2CCOCC2)cc1
C       4.35923674     -0.53626869      1.15384634
C       5.41230942     -0.14980185      0.17184332
N       6.57914705      0.40620618      0.47710379
C       7.25218114      0.58091283     -0.70869748
C       6.46551293      0.16852734     -1.75424086
N       6.77245350      0.21463714     -3.14723788
O       7.97093973      0.21927921     -3.45507709
O       5.82180234      0.25524129     -3.93555576
N       5.30066435     -0.32662418     -1.19871737
C       4.20446578     -1.01398891     -1.88735177
C       3.12421182     -0.04410298     -2.39121508
O       2.05211357      0.10021349     -1.43452371
C       1.16956444     -0.94227400     -1.40545779
O       1.30263755     -1.99369590     -2.02231683
C       0.00563227     -0.64928124     -0.52454771
C      -1.01416341     -1.61451386     -0.44215082
C      -2.14864511     -1.38283167      0.34249220
C      -2.28199644     -0.18000168      1.05731373
C      -3.52207587      0.09530827      1.89054002
N      -4.31216810      1.22920705      1.38118150
C      -5.37680129      1.61932109      2.33726815
C      -6.55889841      0.63043052      2.39496544
O      -7.13357209      0.42155086      1.09393742
C      -6.14583100     -0.02983158      0.15510665
C      -4.95668261      0.94843898      0.07187029
C      -1.25426653      0.77912048      0.97984861
C      -0.11718158      0.54799261      0.19670408
H       4.63107906     -0.18030781      2.15851868
H       3.39540895     -0.09037069      0.88962842
H       4.25048239     -1.62360705      1.20120989
H       8.25407639      1.00043310     -0.74954215
H       4.65379747     -1.57520791     -2.72417587
H       3.80114313     -1.76733590     -1.19979157
H       3.53009380      0.97094143     -2.57576758
H       2.70553151     -0.39965454     -3.35384692
H      -0.93273741     -2.54787831     -1.00232162
H      -2.93122637     -2.14229287      0.37760059
H      -3.17023467      0.32762370      2.90498017
H      -4.11889638     -0.81833017      1.98546538
H      -4.95920087      1.78482997      3.33775818
H      -5.76066178      2.59135488      2.00452528
H      -6.26085313     -0.33782793      2.81852822
H      -7.34593769      1.03700303      3.03853877
H      -6.63172712     -0.09547639     -0.82349090
H      -5.82350708     -1.03989451      0.43368776
H      -5.32802673      1.91384416     -0.31127772
H      -4.22959622      0.59782261     -0.67460037
H      -1.35144656      1.72392850      1.51987103
H       0.65184915      1.31723188      0.14981579
