7
C=CC#N
C      -0.99983955     -0.31307989      0.04967962
C       0.08045571      0.47666884      0.09185106
C       1.39166560     -0.00913679     -0.16360327
N       2.46314562     -0.40101757     -0.37126891
H      -0.92727246     -1.37218767     -0.18360001
H      -1.98845318      0.08830845      0.24973775
H      -0.01970173      1.53044462      0.32720376
