50
O=C(OC1CCCCC1)c1ccccc1C(=O)OC1CCCCC1
O      -3.09803543     -2.04353860      1.93498552
C      -2.09103468     -1.83092862      1.28082056
O      -1.97315142     -1.01302962      0.20738313
C      -3.15511556     -0.27163958     -0.15745856
C      -2.99298661      0.10644177     -1.63716010
C      -3.78657192      1.35528047     -1.99031445
C      -3.30621421      2.56926162     -1.19315609
C      -2.69352554      2.20519544      0.16065075
C      -3.33139456      0.95385454      0.75534148
C      -0.82521689     -2.56693490      1.47291713
C      -0.91881457     -3.94848335      1.70108764
C       0.23710522     -4.71957662      1.83798949
C       1.49182545     -4.11764750      1.75377474
C       1.59366093     -2.74086962      1.54658307
C       0.43420376     -1.96022628      1.41038794
C       0.57147246     -0.49683876      1.29400223
O      -0.03646199      0.30186922      1.98372382
O       1.46847541     -0.22416587      0.31624479
C       1.72029219      1.17212296      0.06221028
C       2.79549632      1.69045079      1.02351976
C       4.15266669      1.02950668      0.78151708
C       4.59423075      1.16930493     -0.67223512
C       3.53523519      0.64440709     -1.63697462
C       2.17659392      1.30245186     -1.39431377
H      -4.03353414     -0.92298032     -0.05903254
H      -1.93319134      0.26175167     -1.87992631
H      -3.31695731     -0.73573042     -2.26062395
H      -3.71057901      1.56546166     -3.06307832
H      -4.84920417      1.17877421     -1.78119573
H      -4.15251421      3.25147993     -1.04743026
H      -2.56242519      3.12607345     -1.77598427
H      -1.61703193      2.03703174      0.03845340
H      -2.80045832      3.05006841      0.85035430
H      -2.91039006      0.77111585      1.74976492
H      -4.40343395      1.14566516      0.89047700
H      -1.89512451     -4.42680902      1.76389899
H       0.15739331     -5.79082538      2.01017080
H       2.39159620     -4.71925699      1.86313715
H       2.57725674     -2.27710022      1.50985445
H       0.79518974      1.74741962      0.18596363
H       2.89647270      2.77588542      0.90192880
H       2.49880427      1.50563151      2.06210914
H       4.90345579      1.48303366      1.43854007
H       4.09945329     -0.03318101      1.04737301
H       4.79472261      2.22529621     -0.89159557
H       5.53430404      0.62765061     -0.82600106
H       3.85346915      0.83029213     -2.66906813
H       3.44518698     -0.44295290     -1.52436743
H       1.43836574      0.83588632     -2.05741184
H       2.23643867      2.36405067     -1.66349044
