72
CC1CCC2(OC1)OC1CC3C4CC=C5CC(O)CCC5(C)C4CCC3(C)C1C2C
C       7.63712891      0.42286839     -2.04080976
C       6.24604114      0.20296310     -1.45476250
C       5.88093039      1.31168573     -0.45783998
C       4.92241362      0.81488135      0.62837460
C       4.03538351     -0.32527215      0.10239392
O       4.82442155     -1.45335004     -0.28019772
C       6.12637887     -1.16710965     -0.78863599
O       3.26406868      0.14033236     -1.02549600
C       2.10946745      0.78288740     -0.50072222
C       0.87302694      0.65649663     -1.39252331
C      -0.23359526      0.54671634     -0.34974313
C      -1.65878141      0.21176052     -0.79826291
C      -2.17527405      1.25728248     -1.79868909
C      -3.65932532      1.22268134     -1.98843496
C      -4.51904945      0.56147033     -1.19201451
C      -6.00136440      0.57245614     -1.49764724
C      -6.83964086      0.95217127     -0.27607842
O      -8.22719849      0.80075193     -0.56764444
C      -6.49900352      0.06567505      0.91669636
C      -5.00749892      0.12522359      1.24391456
C      -4.07147077     -0.22675694      0.04911158
C      -4.19524136     -1.73553235     -0.27200459
C      -2.59058355      0.15676083      0.44899962
C      -2.00366792     -0.69908157      1.60616729
C      -0.52882084     -0.39431916      1.92450023
C       0.34812174     -0.46506595      0.66512599
C       0.36467795     -1.91914380      0.13011146
C       1.77960343      0.12109532      0.85248852
C       2.95921497     -0.82119565      1.08941694
C       3.37904335     -0.89415770      2.55220317
H       8.40852138      0.37562551     -1.26466065
H       7.86685269     -0.34065346     -2.79138606
H       7.70284984      1.40205361     -2.52660470
H       5.52542455      0.24282039     -2.28214304
H       5.42120377      2.14318800     -1.00667874
H       6.77497482      1.72340453      0.02628311
H       4.33364819      1.66345050      0.99368103
H       5.52705451      0.45186165      1.46901332
H       6.37601300     -1.96215947     -1.49955654
H       6.83546955     -1.25489082      0.04360143
H       2.34481569      1.84443775     -0.35112998
H       0.92672834     -0.21560902     -2.05212256
H       0.75612664      1.54024087     -2.02804535
H      -0.28956341      1.53257531      0.14369509
H      -1.66396252     -0.75840560     -1.30670766
H      -1.69257615      1.09221857     -2.76956890
H      -1.90141076      2.26969894     -1.47673972
H      -4.03280903      1.77821412     -2.84659874
H      -6.30898376     -0.41358437     -1.86776226
H      -6.23721433      1.26573761     -2.31540232
H      -6.66744150      2.00288232     -0.01232063
H      -8.43684232      1.40141090     -1.30339232
H      -6.81129709     -0.96775737      0.72234902
H      -7.08242109      0.38511711      1.78904996
H      -4.78196057      1.13962321      1.60018886
H      -4.81660383     -0.54741221      2.08852837
H      -3.47499291     -2.04951447     -1.03433032
H      -4.03399620     -2.35308666      0.61728479
H      -5.18848855     -2.00069431     -0.64946488
H      -2.62395909      1.18644764      0.84157107
H      -2.58567978     -0.53192777      2.51955188
H      -2.09315494     -1.76543998      1.38047921
H      -0.16437259     -1.09527975      2.68504102
H      -0.46926302      0.60599174      2.37255309
H       1.03895258     -2.04113968     -0.72351514
H       0.68635635     -2.61561180      0.91313492
H      -0.61789089     -2.26672910     -0.19890114
H       1.75171030      0.91090218      1.61566959
H       2.71322271     -1.84674894      0.80028850
H       3.60079793      0.09507034      2.96493796
H       2.57642372     -1.33004731      3.15666999
H       4.26833138     -1.52145587      2.67029415
