28
Cc1c(N)c(=O)n(-c2ccccc2)n1C
C      -3.35808592     -0.66304101     -1.01573776
C      -2.13618040      0.02566147     -0.50084874
C      -2.06013458      1.31494874     -0.13346973
N      -2.96791418      2.34714588     -0.13371247
C      -0.62781846      1.51547841      0.29528666
O      -0.19117525      2.61133177      0.61886073
N       0.01280064      0.28038451      0.13771288
C       1.40803590      0.09987458     -0.05338256
C       1.90794227     -0.96883597     -0.81381295
C       3.28337703     -1.14529651     -0.99659470
C       4.18281094     -0.25273538     -0.42187885
C       3.70663018      0.81697132      0.33015626
C       2.33035249      0.99223304      0.51029210
N      -0.93475308     -0.68059292     -0.32875593
C      -0.97499034     -1.90629055      0.48892477
H      -3.13793856     -1.16765551     -1.96216687
H      -4.17912014      0.03707213     -1.19896307
H      -3.71386028     -1.40966596     -0.29889260
H      -2.48106978      3.24557848     -0.10898817
H      -3.63419871      2.28704917     -0.89657370
H       1.23216410     -1.66309571     -1.30520438
H       3.64826853     -1.97494937     -1.59639309
H       5.25191033     -0.38592937     -0.56435388
H       4.40276188      1.52033903      0.78014328
H       1.99860421      1.83188293      1.11605135
H      -1.59332716     -2.66588425     -0.00095933
H      -1.39372897     -1.69993602      1.48077434
H       0.01863732     -2.34204296      0.62642457
