36
CCN(CC)C(=S)SSC(=S)N(CC)CC
C       0.99403101     -0.43818355     -2.67479567
C       2.11175695      0.48261768     -2.20804673
N       1.86336785      1.00074414     -0.85022012
C       2.44480219      0.17959159      0.22713120
C       3.87502649      0.59042493      0.54590651
C       1.17692809      2.21538559     -0.63280528
S       0.58680916      3.22660867     -1.85205512
S       0.97683761      2.73224968      1.05508597
S      -1.02746115      2.35134377      1.39820041
C      -1.00572270      0.62207798      1.80094809
S      -0.54700173      0.17021865      3.36292927
N      -1.38979448     -0.27156187      0.77703890
C      -2.12282850      0.15491495     -0.43064555
C      -3.58995535      0.46540163     -0.16424755
C      -1.20444487     -1.72714537      0.91974948
C      -2.43349764     -2.44908366      1.44851478
H       0.87012096     -1.28602831     -1.99346252
H       0.03708439      0.08923839     -2.72606105
H       1.21848294     -0.83140340     -3.67106406
H       3.06281522     -0.06252149     -2.20848469
H       2.23719548      1.30311901     -2.91969978
H       1.83880123      0.23588310      1.13138674
H       2.41959901     -0.87154396     -0.08348432
H       4.27993514     -0.03818275      1.34497881
H       4.52165184      0.48345405     -0.33088369
H       3.92965619      1.63373563      0.87117068
H      -1.63853829      1.03097330     -0.86612894
H      -2.04992157     -0.63380139     -1.18803632
H      -4.07775019      0.78881379     -1.08928149
H      -3.71234333      1.26013149      0.57678238
H      -4.12540393     -0.41211764      0.20682174
H      -0.35236666     -1.93243839      1.57498206
H      -0.92321514     -2.13471560     -0.05848324
H      -2.19786211     -3.50064121      1.64096195
H      -2.79797203     -2.00315478      2.37850574
H      -3.24882208     -2.42440465      0.72013363
