53
COc1ccc(OC)c(-c2cccc3c(N)c(C(=O)NC4CC(C)C4)nnc23)c1
C      -2.09997571      2.43874970      6.16134960
O      -0.99293487      1.95573661      5.41073576
C      -1.14390636      0.74354552      4.79724176
C      -2.26251850     -0.07992546      4.87329485
C      -2.28674680     -1.30391306      4.19225193
C      -1.19234797     -1.71606489      3.42470939
O      -1.12928901     -2.90796636      2.74688395
C      -2.35486955     -3.59672113      2.53440678
C      -0.05087365     -0.89444236      3.34596217
C       1.13216040     -1.28277501      2.55296003
C       2.22707267     -1.86154066      3.21889758
C       3.36125103     -2.23683143      2.51641752
C       3.40483742     -2.04645457      1.13876122
C       2.31708373     -1.48041311      0.43141270
C       2.33387349     -1.29059308     -0.97622671
N       3.49686424     -1.59810030     -1.73243174
C       1.23952750     -0.62529444     -1.53985550
C       1.13936771     -0.33098499     -3.00578477
O       1.96196440     -0.76148866     -3.81025711
N       0.05137593      0.44234707     -3.37377334
C      -0.20909477      0.83775026     -4.76099374
C       0.65711383      2.01497475     -5.26996433
C      -0.60741021      2.53698675     -5.99923180
C      -0.79373865      4.03946711     -6.04287941
C      -1.43483080      1.76607736     -4.93920334
N       0.16550188     -0.23812047     -0.81762311
N       0.13989287     -0.48393245      0.52524088
C       1.17178595     -1.07737526      1.15986561
C      -0.04683562      0.33065555      4.03826190
H      -2.31429579      1.78296412      7.01359640
H      -1.83054152      3.42391778      6.55711538
H      -2.98407262      2.56472010      5.52648255
H      -3.13576583      0.19568153      5.45519562
H      -3.17508617     -1.91861636      4.28983993
H      -3.10132848     -2.95079429      2.06036400
H      -2.15579281     -4.42920540      1.85340176
H      -2.73344513     -4.01822895      3.47218246
H       2.18768490     -2.01785952      4.29531967
H       4.20866110     -2.67507342      3.03702190
H       4.31505807     -2.33532607      0.61837643
H       3.32068636     -1.54756520     -2.74547655
H       3.93304661     -2.47829360     -1.48036882
H      -0.57281436      0.71703011     -2.61797657
H      -0.22409113     -0.02345355     -5.44116040
H       1.49131316      1.73750453     -5.92044904
H       1.03144268      2.67869053     -4.48094512
H      -0.71432909      2.09981930     -7.00237948
H      -1.78767978      4.29272874     -6.42528658
H      -0.05197874      4.50067263     -6.70306114
H      -0.68927747      4.48864178     -5.04989330
H      -2.34089964      1.28190016     -5.31452537
H      -1.69353068      2.35638871     -4.05154928
H       0.82273579      0.98040336      3.97807157
