44
CC1=CC(=C(c2ccc(N)cc2)c2ccc(N)cc2)C=CC1=N.[Cl-].[H+]
C      -1.82740405      4.41912276     -0.00694128
C      -0.70757498      3.44834601      0.00019224
C      -0.84246824      2.14436338      0.05122250
C       0.28829079      1.19999334      0.05560993
C       0.10501324     -0.10051493      0.05127633
C       1.26702408     -0.99134088      0.06814042
C       2.16465926     -0.81769076      1.09855836
C       3.30590541     -1.58725591      1.16279967
C       3.52148574     -2.53129124      0.17039108
N       4.68619674     -3.34372025      0.18438020
C       2.60655231     -2.70391746     -0.87166958
C       1.47436454     -1.93176365     -0.92481931
C      -1.18394476     -0.77011702     -0.01451279
C      -1.49450629     -1.78423594      0.87753580
C      -2.70571341     -2.43105921      0.79330714
C      -3.64319124     -2.10052867     -0.16714740
N      -4.87362335     -2.80716534     -0.20829000
C      -3.33299562     -1.09553453     -1.05079671
C      -2.11484972     -0.42810464     -0.98475991
C       1.61844387      1.81387416     -0.00125279
C       1.80922258      3.12298956     -0.05229953
C       0.66640661      3.99333794     -0.05433387
N       0.83207080      5.26833409     -0.10328803
Cl      0.00000000      0.00000000      0.00000000
H       0.00000000      0.00000000      0.00000000
H      -1.76595789      5.02792565     -0.92972694
H      -2.81658970      3.95513938      0.13912414
H      -1.67881256      5.13386312      0.83247098
H      -1.84639704      1.74758843      0.10799698
H       2.00980972     -0.09188308      1.88488755
H       4.04173958     -1.47037625      1.97852250
H       5.44060650     -3.16335772      0.87657843
H       4.82120862     -4.12489752     -0.48423492
H       2.80159384     -3.46258147     -1.64643850
H       0.72673461     -2.01710492     -1.70891726
H      -0.80206557     -2.07953015      1.64390579
H      -2.95797973     -3.21831770      1.48022939
H      -5.75515283     -2.38534750      0.16107410
H      -4.92077475     -3.77589198     -0.61583698
H      -4.05369642     -0.82697116     -1.80434130
H      -1.95458646      0.33696286     -1.72976823
H       2.49869687      1.19791660     -0.02295920
H       2.80943616      3.55746782     -0.09361366
H       1.78282274      5.67327478     -0.14225534
