60
C#CC1(OC(=O)c2ccccc2)CCC2C3CCC4=CC(=O)CCC4C3CCC21C
C       2.47753798      4.02134757     -0.73311984
C       2.19768329      2.91977992     -0.34359978
C       1.86583200      1.56287802      0.13422357
O       2.84594226      0.59792733     -0.33699777
C       4.14719993      0.73639289      0.01028952
O       4.62378950      1.59993026      0.72856375
C       4.96341357     -0.34519269     -0.60735313
C       6.34984634     -0.32663497     -0.39925609
C       7.16033118     -1.31928289     -0.95379783
C       6.59146150     -2.33653953     -1.71840565
C       5.21344640     -2.36421905     -1.92978061
C       4.39919175     -1.37267023     -1.37640504
C       1.71933670      1.46984409      1.66496839
C       0.71205543      0.34318600      1.93138714
C       0.18739041     -0.11544045      0.55978578
C      -1.26597246     -0.62948968      0.53797513
C      -1.49263550     -1.74330421      1.56066346
C      -2.82616688     -2.44652065      1.32979493
C      -3.90637783     -1.57707173      0.73153333
C      -4.94929216     -2.17696903      0.12800969
C      -6.11827002     -1.40376413     -0.35056725
O      -7.02796435     -1.98077558     -0.94004322
C      -6.17732727      0.05981679     -0.00292967
C      -4.78316117      0.66518260     -0.05941534
C      -3.78375658     -0.06310576      0.86511074
C      -2.31240868      0.48617889      0.75759466
C      -2.07976412      1.61726379     -0.25837998
C      -0.65208284      2.16813453     -0.18970163
C       0.45234485      1.09046531     -0.37604096
C       0.48701628      0.64610031     -1.85357828
H       2.74042535      4.99617789     -1.07342334
H       6.80454500      0.46343457      0.19589980
H       8.23480515     -1.29727983     -0.78881708
H       7.22331841     -3.10893669     -2.15046805
H       4.77205835     -3.15878620     -2.52666388
H       3.32826141     -1.41674528     -1.55389220
H       1.33190585      2.40470819      2.08886120
H       2.65602063      1.25345672      2.18653789
H       1.19368943     -0.49261228      2.45175230
H      -0.08011530      0.71336008      2.58927308
H       0.82596687     -0.95365929      0.24202806
H      -1.43091241     -1.05526647     -0.46263118
H      -0.68563400     -2.48471059      1.51493402
H      -1.47741033     -1.33138955      2.57786726
H      -2.64735024     -3.30296362      0.66575833
H      -3.17654104     -2.85678701      2.28501826
H      -5.02903295     -3.25342730      0.02096986
H      -6.61889118      0.16672648      0.99354957
H      -6.82443496      0.56729783     -0.72636634
H      -4.43475505      0.61752804     -1.09885678
H      -4.85341904      1.72257069      0.21963173
H      -4.10590797      0.15358095      1.89578884
H      -2.11477816      0.93348475      1.74290922
H      -2.28951462      1.26832439     -1.27504111
H      -2.76173179      2.45114382     -0.05752636
H      -0.54657555      2.94885272     -0.95366284
H      -0.54034370      2.67656469      0.77545849
H       0.77959593      1.47669478     -2.50500225
H      -0.48732861      0.28676751     -2.19761268
H       1.19544500     -0.17155769     -2.01994120
