17
NNC(=O)c1ccc([N+](=O)[O-])s1
N      -3.73433594      0.98125587      0.03802859
N      -2.48368458      0.33699285     -0.13663197
C      -1.29993137      1.03458026      0.12013358
O      -1.33693344      2.22352808      0.44115060
C      -0.07391627      0.25410171     -0.01138443
C       0.13469272     -1.02611419     -0.50148924
C       1.50932525     -1.41724327     -0.45274093
C       2.29999748     -0.41796573      0.06915748
N       3.72683358     -0.46710957      0.26223734
O       4.28806985     -1.51604762     -0.08363799
O       4.29047331      0.51909381      0.75206339
S       1.41380047      0.96436614      0.49047440
H      -3.62793783      1.63309745      0.82793856
H      -3.86651251      1.61258089     -0.75971962
H      -2.48188741     -0.67009097     -0.26387637
H      -0.64620343     -1.66778382     -0.89167804
H       1.88815013     -2.37724187     -0.78736711
