25
O=[N+]([O-])c1c(O)cccc1-c1ccccc1
O      -1.68301262      2.80626796     -0.01608944
N      -1.11226971      1.89615857     -0.64001785
O      -0.33411140      2.06282531     -1.58704514
C      -1.46573926      0.53728353     -0.26640005
C      -2.82786999      0.22317867     -0.13029288
O      -3.85039193      1.12697987     -0.24518455
C      -3.21061720     -1.08681348      0.14207315
C      -2.24164787     -2.07435702      0.30393032
C      -0.88522258     -1.75078099      0.20368220
C      -0.46354292     -0.43662616     -0.07754821
C       0.97906487     -0.15458199     -0.11067780
C       1.77393232     -0.60124277     -1.17789668
C       3.14592078     -0.34138551     -1.20392366
C       3.74214150      0.36414621     -0.16126706
C       2.96877110      0.80974099      0.90822038
C       1.59646164      0.55098504      0.93488624
H      -3.50822213      2.03695248     -0.12607536
H      -4.26483844     -1.33737513      0.23537382
H      -2.54109136     -3.09719562      0.52223381
H      -0.14617857     -2.53688515      0.35945703
H       1.32460590     -1.14518250     -2.00643805
H       3.74725979     -0.68461654     -2.04184163
H       4.80926635      0.56974574     -0.18411069
H       3.43366898      1.36067895      1.72188589
H       1.01366275      0.90209957      1.78416882
