20
COc1ccc(C(N)=O)cc1
C       3.63034274      0.47877175     -0.00684162
O       2.71118004     -0.58623461      0.20295482
C       1.38311948     -0.29304930      0.06292437
C       0.84642176      0.95491728     -0.25348033
C      -0.53983669      1.11462397     -0.36582045
C      -1.40090063      0.03085726     -0.15484510
C      -2.86522076      0.25706089     -0.28640305
N      -3.70124402     -0.63194014      0.33106796
O      -3.31566413      1.22084287     -0.89270885
C      -0.86244279     -1.22339352      0.14880085
C       0.52311859     -1.37748202      0.25961495
H       4.64001126      0.08166349      0.13564440
H       3.48080207      1.27893388      0.72556643
H       3.56437946      0.86139383     -1.03072752
H       1.47351942      1.82412601     -0.42207233
H      -0.94758156      2.09222618     -0.61785547
H      -3.38138667     -1.25172913      1.06081538
H      -4.68201665     -0.38107666      0.33376541
H      -1.49595844     -2.09535981      0.27686337
H       0.93935753     -2.35515224      0.49273677
