22
NCCCCCC(=O)O
N      -2.74423547      1.35731556      0.05460286
C      -2.69153981      0.04720482     -0.58115577
C      -1.51894420     -0.79303102     -0.07136863
C      -0.15291666     -0.16537813     -0.36669884
C       0.98753289     -1.09349003      0.06517597
C       2.36324927     -0.48589084     -0.20527877
C       2.70182468      0.63047896      0.74658492
O       2.23990309      0.82280292      1.85798634
O       3.66104119      1.43976376      0.25553504
H      -3.59386506      1.84106881     -0.23226923
H      -2.80316486      1.24727978      1.06640655
H      -2.61433531      0.17703426     -1.66599293
H      -3.62781781     -0.48535456     -0.38094339
H      -1.62253198     -0.95585961      1.00892298
H      -1.57306261     -1.78123654     -0.54481233
H      -0.06541563      0.79463578      0.15420892
H      -0.06855781      0.04008704     -1.44078360
H       0.88377308     -1.34066582      1.12859599
H       0.90792516     -2.03548434     -0.49121289
H       3.13306192     -1.25647541     -0.08736172
H       2.40684199     -0.10988783     -1.23356194
H       3.79123395      2.10508242      0.96342048
