25
O=C(Oc1ccccc1)n1c(=O)[nH]cc(F)c1=O
O      -0.08043405      1.68931389      0.11490841
C       0.39981139      0.55988895      0.17085425
O      -0.32874653     -0.62430374      0.26504662
C      -1.71328032     -0.44502116      0.25740285
C      -2.40445729     -0.58998986      1.45822226
C      -3.79266707     -0.46374933      1.46187351
C      -4.47397704     -0.20811845      0.26918749
C      -3.77006854     -0.08213749     -0.93120646
C      -2.38167142     -0.20786073     -0.94248736
N       1.74072160      0.31081654      0.23202353
C       2.26631853     -0.08995687      1.44328874
O       1.61491300     -0.36181382      2.44961454
N       3.64026045     -0.19364192      1.49422601
C       4.46230177      0.09364463      0.44269442
C       3.95076504      0.46919918     -0.72719092
F       4.72496813      0.74496392     -1.79237963
C       2.48147608      0.56367367     -0.90322315
O       2.01378187      0.78114511     -2.01911219
H      -1.86851650     -0.79359933      2.38067030
H      -4.34485235     -0.56412827      2.39250832
H      -5.55648636     -0.10723077      0.27484901
H      -4.30468487      0.11539333     -1.85663071
H      -1.83194476     -0.11281465     -1.87404804
H       4.02530921     -0.48240663      2.38908344
H       5.53116003     -0.00126620      0.60103318
