37
NNS(=O)(=O)c1ccc(Oc2ccc(S(=O)(=O)NN)cc2)cc1
N      -6.71791172      2.08014941     -0.81587053
N      -5.94004832      1.08672800     -0.14633206
S      -5.10584244      0.10639544     -1.30892549
O      -5.89167413     -1.10063186     -1.44673791
O      -4.77423216      0.93916008     -2.44693205
C      -3.60952344     -0.26664250     -0.43859718
C      -3.35005104     -1.57477396     -0.01940079
C      -2.16100827     -1.85329560      0.65649833
C      -1.23480933     -0.83396778      0.89039490
O      -0.10007590     -1.17363533      1.59180962
C       1.10314194     -0.70916328      1.11068722
C       1.47490389     -0.82872447     -0.23247183
C       2.72521100     -0.36928999     -0.64926493
C       3.60277430      0.18657025      0.28785049
S       5.18135007      0.77548009     -0.25697526
O       5.91037728      1.30467324      0.87525903
O       4.98624959      1.54339556     -1.46975478
N       5.97125414     -0.70999384     -0.67893920
N       6.85233056     -0.49630524     -1.78273068
C       3.24150353      0.29300343      1.63410197
C       1.98939765     -0.16722832      2.04476718
C      -1.50570178      0.47669568      0.48374748
C      -2.69250742      0.76113562     -0.19345004
H      -7.33699223      1.61275074     -1.49052725
H      -6.07227363      2.61701059     -1.41316412
H      -6.53757850      0.47804164      0.42993592
H      -4.05951451     -2.37680157     -0.21103599
H      -1.95130250     -2.86502926      0.99499753
H       0.80145146     -1.28054772     -0.95619042
H       3.01145045     -0.45229612     -1.69571958
H       6.48726629     -1.05397765      0.14267497
H       7.49826000      0.26705961     -1.54416319
H       6.28643802     -0.10273362     -2.54869008
H       3.92028443      0.72731937      2.36477312
H       1.69994819     -0.09776387      3.09050384
H      -0.80292444      1.27889790      0.69361119
H      -2.89962102      1.77833532     -0.51949072
