18
Cc1cc(C)c[n+]([O-])c1
C       2.36262214     -1.24829249     -0.08056941
C       1.17826448     -0.33522693      0.01303137
C      -0.12364122     -0.84019243     -0.04228789
C      -1.22478003      0.01799573      0.02107878
C      -2.62237236     -0.51555014     -0.06387590
C      -0.99710166      1.39465732      0.10514116
N       0.28270305      1.91996174      0.14593659
O       0.46721364      3.17350617      0.22136933
C       1.35691871      1.04864073      0.09725783
H       2.15360220     -2.20735183      0.40487596
H       3.23320668     -0.81280410      0.42113938
H       2.61437576     -1.42895995     -1.13009032
H      -0.28185937     -1.91449312     -0.13397279
H      -3.32751026      0.15155343      0.44310839
H      -2.92233987     -0.61512146     -1.11154911
H      -2.69499308     -1.49465864      0.42111315
H      -1.76501348      2.15271216      0.14097134
H       2.31070468      1.55362380      0.12732214
