37
CNC(=O)/C(=N\OC)c1ccccc1Oc1ccccc1
C      -2.20038164     -2.71046090     -0.27241016
N      -2.04216222     -1.28535491     -0.35574637
C      -1.52008243     -0.57017144      0.69953725
O      -1.04506126     -1.03617685      1.72453898
C      -1.56004359      0.94099154      0.50835739
N      -2.67134182      1.60594280      0.34064962
O      -3.79690265      0.77135829      0.37015660
C      -4.96187412      1.58593847      0.30556905
C      -0.26869497      1.67015492      0.55387524
C      -0.23184057      2.89642683      1.23514609
C       0.95868679      3.61949468      1.31959030
C       2.11372125      3.13106217      0.71248315
C       2.08051430      1.92098733      0.01702605
C       0.89349272      1.17786411     -0.05490032
O       0.81914169      0.03639266     -0.82405809
C       1.82688650     -0.88969788     -0.67993535
C       2.43362501     -1.35955077     -1.84495780
C       3.43917413     -2.32307462     -1.76333994
C       3.82285844     -2.82644127     -0.51965663
C       3.19653694     -2.37354726      0.64232439
C       2.19170349     -1.40873244      0.56398534
H      -1.31399930     -3.16365924      0.17980957
H      -3.07546035     -2.93097160      0.34459609
H      -2.34882649     -3.10404463     -1.28037892
H      -2.62372123     -0.75467503     -0.99510614
H      -5.83993629      0.93534804      0.32902622
H      -4.97178573      2.15921584     -0.62651278
H      -4.99967458      2.26161309      1.16555853
H      -1.12940730      3.28730594      1.71027932
H       0.98257227      4.56558963      1.85498488
H       3.03949258      3.69875969      0.76845650
H       2.98226902      1.57236055     -0.48037424
H       2.12655572     -0.97316212     -2.81253171
H       3.91924321     -2.68578446     -2.66833794
H       4.60303925     -3.58078699     -0.45587869
H       3.48225037     -2.77883461      1.60959137
H       1.68943283     -1.08167953      1.47095461
