20
COc1ccccc1C(N)=O
C      -1.74863732     -1.90243019     -0.80615731
O      -0.44895419     -1.40832475     -0.50092824
C      -0.34231041     -0.12125812     -0.03355150
C      -1.45003059      0.72106957      0.15464550
C      -1.29018867      2.02468456      0.63321062
C      -0.02265101      2.50785717      0.93134236
C       1.08775057      1.68548349      0.75049407
C       0.94643174      0.36968907      0.26945852
C       2.21831505     -0.40877542      0.12032976
N       2.14820885     -1.68959581     -0.34117414
O       3.30899772      0.07744699      0.40186406
H      -1.63771443     -2.93185302     -1.16036723
H      -2.38192746     -1.92537232      0.08664854
H      -2.21225177     -1.32292146     -1.61108978
H      -2.46232950      0.39507696     -0.06220224
H      -2.16000356      2.66247189      0.77260199
H       0.10607084      3.52103602      1.30373518
H       2.07639235      2.07635055      0.98799799
H       3.00387348     -2.21554847     -0.44229679
H       1.26095832     -2.11508670     -0.58082942
