11
C=C1C=CC(=O)O1
C       1.99231385     -0.08591580     -0.11057950
C       0.66134774     -0.14565188     -0.04637365
C      -0.23375609      0.94734946      0.09032212
C      -1.47477183      0.48053414      0.11626214
C      -1.35416716     -0.97299295     -0.00995510
O      -2.30707239     -1.73462672     -0.02331101
O      -0.03785092     -1.34133468     -0.10872815
H       2.57889802     -0.99313315     -0.21591706
H       2.52751159      0.85595240     -0.06065049
H       0.05459519      1.98459622      0.16094222
H      -2.40704801      1.00522294      0.20798849
