31
NC(=O)OCC(COC(N)=O)c1ccccc1
N       4.13627909     -1.05415496     -0.31557934
C       2.94975695     -1.36237946     -0.88260887
O       2.83753626     -2.02823942     -1.89866898
O       1.94536524     -0.81748959     -0.16458645
C       0.63459984     -1.06011604     -0.70247246
C      -0.40524592     -0.28274771      0.12656205
C      -1.83665135     -0.64096301     -0.30846630
O      -2.10038578     -2.04766967     -0.16418244
C      -2.44305983     -2.44941117      1.07976303
N      -2.67566216     -3.77936149      1.08335482
O      -2.53046654     -1.74557147      2.07168162
C      -0.20936306      1.22736510      0.07325198
C      -0.10491816      1.92382541     -1.14072578
C       0.05793526      3.31090153     -1.15346429
C       0.11192751      4.02030539      0.04391967
C       0.00073725      3.34416029      1.25610021
C      -0.16113197      1.95768918      1.27131811
H       4.98378986     -1.30336251     -0.80153885
H       4.15648917     -0.39484339      0.44709571
H       0.60361710     -0.76530864     -1.75807108
H       0.43735530     -2.13672839     -0.63562063
H      -0.26098784     -0.60447863      1.16683172
H      -1.98683449     -0.40388156     -1.36852471
H      -2.58609066     -0.05844367      0.24358855
H      -2.60738518     -4.30644008      0.22691401
H      -2.95999250     -4.22501671      1.94230499
H      -0.15064488      1.39950036     -2.09209052
H       0.14096862      3.83841339     -2.10024993
H       0.23738824      5.09962308      0.03240855
H       0.03735795      3.89544530      2.19205521
H      -0.25228333      1.44937853      2.22970038
