22
Clc1ccc(-c2c(Cl)cc(Cl)cc2Cl)c(Cl)c1
Cl     -5.24583851     -0.08967424      0.54399491
C      -3.53151247     -0.05808002      0.40448419
C      -2.74616182     -0.56704793      1.43537518
C      -1.35370085     -0.54266783      1.32473894
C      -0.72964635     -0.00898092      0.18177790
C       0.74446806      0.00035708      0.09910742
C       1.49854881      1.09418563      0.57395070
Cl      0.73973283      2.47556320      1.29431091
C       2.89391436      1.10911377      0.48602715
C       3.55983694      0.02784226     -0.07896394
Cl      5.27623399      0.04408904     -0.18645929
C       2.84933231     -1.06784999     -0.55483961
C       1.45401542     -1.08039386     -0.46577720
Cl      0.63820373     -2.48213376     -1.07610607
C      -1.54792968      0.49967939     -0.84705832
Cl     -0.86914978      1.17530254     -2.28922704
C      -2.94086174      0.47552669     -0.73687818
H      -3.20910639     -0.98370329      2.32665980
H      -0.75414702     -0.94475710      2.14004626
H       3.45679321      1.96278805      0.85608051
H       3.37748187     -1.91004663     -0.99562825
H      -3.56050692      0.87088793     -1.53725486
