35
CC1(C)COC(=O)C2CC=CCC2C(=O)OC1
C      -2.49036630     -1.86268529      0.51148321
C      -2.54686289     -0.43778467     -0.07454585
C      -3.99669657     -0.12422187     -0.48058098
C      -1.64909316     -0.36827619     -1.34239632
O      -0.27611229     -0.58276582     -0.97870211
C       0.62338244      0.24783841     -1.56439783
O       0.48833904      0.74505057     -2.67396408
C       1.80276366      0.52888625     -0.65025410
C       3.00306821     -0.33981752     -1.02636672
C       4.11644443     -0.23612895     -0.01739597
C       3.96782019      0.32302251      1.19481961
C       2.65693391      0.86329840      1.70177034
C       1.48123296      0.37917792      0.85257071
C       0.21149274      1.14057229      1.17299170
O       0.06805868      2.34587000      1.03374670
O      -0.77855847      0.25741265      1.47839153
C      -2.09508755      0.58857802      1.00575465
H      -1.47268177     -2.15044672      0.79580202
H      -2.84929319     -2.60033321     -0.21527800
H      -3.12015756     -1.94464605      1.40455961
H      -4.67162631     -0.18748823      0.38034759
H      -4.08089721      0.88603876     -0.89642591
H      -4.35692216     -0.82842323     -1.23893031
H      -1.78238890      0.60771196     -1.82617200
H      -1.93173277     -1.14653644     -2.06040581
H       2.05541764      1.58560901     -0.82840292
H       2.70792669     -1.39217312     -1.11983242
H       3.38022064     -0.03119570     -2.00893242
H       5.08825141     -0.62696051     -0.31175826
H       4.82412960      0.39270344      1.86227487
H       2.71057258      1.95855732      1.72063890
H       2.50966833      0.53845692      2.73884797
H       1.31256989     -0.68403100      1.08020222
H      -2.76443690      0.54819215      1.87270894
H      -2.14537902      1.60693796      0.60203730
