32
N=C(N)c1ccc(CCc2ccc(C(=N)N)o2)o1
N      -4.79537078      0.00761685     -1.97444178
C      -4.97040216      0.10408645     -0.69093167
N      -6.26440855      0.06607571     -0.26297015
C      -3.82262692      0.25899546      0.17709822
C      -3.70416253      0.32665660      1.55143351
C      -2.32523629      0.48250731      1.83442531
C      -1.68019447      0.49808868      0.61718652
C      -0.25527861      0.62345162      0.21734698
C       0.35078210     -0.73999657     -0.11115954
C       1.77287437     -0.61412566     -0.52076067
C       2.41162042     -0.63971917     -1.74018906
C       3.79145219     -0.46807650     -1.46948123
C       3.91981897     -0.35031427     -0.09796782
C       5.05654134     -0.15566904      0.78051795
N       6.24629376      0.05737237      0.30640292
N       4.95293236     -0.15572322      2.13963881
O       2.67911479     -0.43565907      0.47985228
O      -2.58246344      0.36288733     -0.39427278
H      -3.78229288      0.05063684     -2.15758151
H      -6.48047856      0.68356658      0.50816840
H      -6.89376891      0.18601631     -1.05032133
H      -4.51538720      0.26177556      2.26254861
H      -1.85787662      0.56734805      2.80593731
H       0.30887880      1.10270835      1.02754868
H      -0.17905573      1.29161222     -0.64999239
H       0.28132711     -1.40562071      0.75865602
H      -0.21809941     -1.22237817     -0.91623262
H       1.94110063     -0.76961603     -2.70532361
H       4.59360391     -0.44217927     -2.19300737
H       6.23578230      0.04424441     -0.71562710
H       5.73982941      0.30629530      2.57846058
H       4.04515060      0.11713568      2.49554451
