72
C=O.CC1CO1.CCCCCCCCCc1ccccc1O.OCCNCCO
C      -0.01197595      0.00107421     -0.00273681
O       1.17734848     -0.10560281      0.26902043
C       1.23828208     -0.05699902      0.01278956
C      -0.12865137      0.50196724      0.18305516
C      -1.35291227     -0.32865359     -0.09105335
O      -0.86913059      0.64067632     -1.03412626
C       6.13185084      1.50667434      0.04715241
C       5.32276321      0.41547983     -0.63578002
C       3.93753081      0.26664032     -0.00469365
C       3.12795674     -0.83043850     -0.69966199
C       1.77612582     -1.10855437     -0.03351823
C       0.78788007      0.05416230     -0.15793648
C      -0.56426802     -0.22101934      0.51044730
C      -1.38658165     -1.30242402     -0.19953316
C      -2.74725798     -1.55330952      0.46424888
C      -3.72321540     -0.40974256      0.32210187
C      -3.96829853      0.41148085      1.43706924
C      -4.85100073      1.49108640      1.35676215
C      -5.50436226      1.76811639      0.15961751
C      -5.27536377      0.96414885     -0.95449722
C      -4.39490702     -0.11435207     -0.87181457
O      -4.24590572     -0.84491338     -2.01662619
O      -2.45248888      1.41112384      0.00736471
C      -2.42938255      0.03113839     -0.34781251
C      -1.22345023     -0.65631450      0.30409937
N       0.01859130      0.04513715     -0.07646412
C       1.18274226     -0.61014501      0.55193591
C       2.46927497      0.12495574      0.15654373
O       2.36721374      1.50352264      0.50324508
H      -0.68065730     -0.87211039     -0.06724176
H      -0.48471523      0.97663899     -0.19904185
H       1.27132263     -0.83713209     -0.75485714
H       1.58637271     -0.49133290      0.95489028
H       1.93612611      0.73484549     -0.27629602
H      -0.18280248      1.30277491      0.90755590
H      -2.26500716     -0.09163635      0.44192288
H      -1.23359966     -1.37451001     -0.34388103
H       5.62966299      2.47604996     -0.03315009
H       7.11801021      1.59539826     -0.41922324
H       6.27693205      1.28139203      1.10853087
H       5.86829696     -0.53278615     -0.56589798
H       5.22268350      0.65490740     -1.70086098
H       3.41011674      1.22448657     -0.07210161
H       4.04351504      0.02730704      1.06027263
H       2.97205925     -0.56649242     -1.75276471
H       3.70895966     -1.76120211     -0.69057995
H       1.93078887     -1.35322616      1.02421840
H       1.35349924     -2.00156996     -0.50694180
H       1.21292155      0.94634591      0.31532248
H       0.63263432      0.29943608     -1.21544569
H      -1.12742284      0.71943948      0.51509225
H      -0.40635763     -0.50154609      1.55882412
H      -0.83423977     -2.24852612     -0.18223276
H      -1.51608101     -1.02996887     -1.25333135
H      -3.20162177     -2.45581768      0.03625950
H      -2.59570732     -1.78931265      1.52563072
H      -3.46466620      0.21794376      2.38213958
H      -5.02601595      2.11583523      2.22877766
H      -6.19108299      2.60722698      0.09223639
H      -5.78436962      1.17503409     -1.89106576
H      -3.65546169     -1.59339011     -1.84643074
H      -1.51298400      1.67471584      0.06650812
H      -2.38006617     -0.04057430     -1.43928498
H      -3.36385530     -0.42772226     -0.01196715
H      -1.19034723     -1.70728607     -0.00328016
H      -1.33833576     -0.60889069      1.39325736
H       0.12422394     -0.00386363     -1.09297332
H       1.07144911     -0.56248337      1.64145262
H       1.25278021     -1.66045577      0.24852915
H       3.33245100     -0.29934286      0.67759042
H       2.64611362      0.05544316     -0.92178475
H       1.42606997      1.73104170      0.36866344
