14
CC1OCCO1
C       1.90202881      0.33091599      0.04962962
C       0.64611453     -0.34107125     -0.47110931
O      -0.24942730      0.64328643     -1.00538924
C      -1.35567824      0.65424782     -0.10350658
C      -1.37543435     -0.74627224      0.44495659
O       0.00902088     -1.05293884      0.59766482
H       1.65811913      1.03897819      0.84954271
H       2.40219243      0.89376196     -0.74445331
H       2.59609665     -0.40588339      0.46555249
H       0.89461653     -1.04952722     -1.26855538
H      -1.14609879      1.39013572      0.68034822
H      -2.27644490      0.93087455     -0.62282432
H      -1.89991603     -0.83173417      1.39971723
H      -1.80518934     -1.45477356     -0.27157352
