14
NC(=O)NCC(=O)O
N      -2.50115691      0.64144052     -0.81976037
C      -1.62169436     -0.33447238     -0.48632755
O      -1.98665030     -1.44588867     -0.13774216
N      -0.33099946      0.07456000     -0.59419097
C       0.74679630     -0.80011520     -0.16219240
C       2.09264751     -0.09532305     -0.16293826
O       3.17524194     -0.61040829      0.06710584
O       2.01507116      1.23391692     -0.40616838
H      -2.23233341      1.22876027     -1.59593072
H      -3.45563365      0.30556416     -0.86579830
H      -0.16638546      1.06661987     -0.47648697
H       0.78321869     -1.65423913     -0.84453457
H       0.53227916     -1.13987717      0.85588581
H       2.94959880      1.52946215     -0.35766546
