43
CCOC(=O)CN(C)C(=O)COC(=O)c1ccccc1OC(C)=O
C       4.07968025      0.02698600      2.09102928
C       3.07995843     -1.09429463      1.88113366
O       2.62635844     -1.09802554      0.52040605
C       3.38040830     -1.81073164     -0.36198528
O       4.36834088     -2.47295242     -0.05933874
C       2.84264827     -1.72609008     -1.79216299
N       1.66396992     -0.87265783     -1.98723336
C       0.36522955     -1.45386836     -1.66933833
C       1.89333227      0.49651249     -2.10753805
O       3.03073899      0.95366084     -2.25583355
C       0.69040819      1.43415814     -2.06181219
O       0.12228157      1.38527177     -0.75210606
C      -1.18507460      1.72447980     -0.68324425
O      -1.87782172      2.10206983     -1.61257880
C      -1.67242321      1.50314693      0.70089434
C      -0.80743761      1.65970012      1.79483923
C      -1.27831534      1.47854269      3.09861938
C      -2.61380599      1.14481439      3.32298375
C      -3.48441315      0.98801817      2.24449283
C      -3.00809682      1.15094768      0.94067648
O      -3.94677610      0.99272411     -0.08571254
C      -3.75340247     -0.15073565     -0.85422035
C      -4.77060417     -0.17345983     -1.95597042
O      -2.88920242     -1.00426465     -0.69065646
H       4.96603696     -0.11380772      1.46322686
H       4.39638504      0.07902900      3.13727072
H       3.64142856      0.98855537      1.80901507
H       2.19973906     -0.92454197      2.50926463
H       3.49807464     -2.06487229      2.16888378
H       3.65871320     -1.35540302     -2.42258384
H       2.58935121     -2.74044111     -2.11932265
H       0.22750887     -1.46411637     -0.58546746
H      -0.44516308     -0.88778570     -2.13175030
H       0.32200594     -2.47702068     -2.05463899
H       1.03963760      2.45507188     -2.25132110
H      -0.01368255      1.15122005     -2.85238582
H       0.23509794      1.93561390      1.64328762
H      -0.60213932      1.60920367      3.94071469
H      -2.97954312      1.00808818      4.33880490
H      -4.52620303      0.73358360      2.42138973
H      -5.76404180      0.04046270     -1.55136863
H      -4.50334479      0.56376281     -2.71722471
H      -4.79584276     -1.16820412     -2.41113815
