28
CCS(=O)(=O)c1nnc(N(C)C(=O)NC)s1
C       4.22858466      0.60961321     -0.66267438
C       4.06116775      0.16317605      0.77568360
S       3.04148462     -1.28393941      0.95560007
O       3.00668876     -1.64716301      2.35998886
O       3.39618771     -2.25028712     -0.06653311
C       1.41781038     -0.73873086      0.57646038
N       1.04807006      0.50519190      0.36609017
N      -0.30279432      0.58177848      0.10107200
C      -0.90474390     -0.59363560      0.13503575
N      -2.25737683     -0.86334703     -0.09198209
C      -2.79337588     -2.22276023     -0.10945373
C      -3.16775803      0.16601597     -0.35084752
O      -4.34547774     -0.05508977     -0.64064347
N      -2.71974663      1.45599174     -0.23632150
C      -3.56388281      2.57709548     -0.56197850
S       0.16968601     -1.89318939      0.48482409
H       4.86697298      1.49731207     -0.71000548
H       3.26962735      0.85813661     -1.12562488
H       4.69669762     -0.17396045     -1.26695148
H       3.63227335      0.95763873      1.39384430
H       5.03853736     -0.09618457      1.19640501
H      -2.61488649     -2.69613536      0.86136908
H      -2.30445197     -2.79316616     -0.90577561
H      -3.87076214     -2.25161124     -0.29333712
H      -1.71758279      1.61092347     -0.24278300
H      -3.09715178      3.48680463     -0.17739657
H      -3.66039990      2.64069909     -1.64910715
H      -4.55339740      2.44882278     -0.11495771
