12
Clc1ccccc1I
Cl      2.40047972      1.87933009      0.01638908
C       1.04287197      0.80913483      0.00668050
C      -0.22674827      1.39273175      0.09142331
C      -1.37273895      0.59613626      0.08956228
C      -1.25544690     -0.78889423      0.00292061
C       0.00698174     -1.37929394     -0.08194583
C       1.16058668     -0.58374377     -0.08044562
I       3.00150315     -1.58139419     -0.21228260
H      -0.32994136      2.47333764      0.15948384
H      -2.35549470      1.05704905      0.15570246
H      -2.14730812     -1.41150145      0.00131656
H       0.07525503     -2.46289206     -0.14880460
