34
C=CCCC(=O)C1=CCCC(C)(C)C1
C       5.67501161      0.05616199     -1.30862352
C       4.91546775     -0.16116162     -0.22770477
C       3.70919619      0.66136550      0.13159673
C       2.43485612     -0.18144375      0.09788307
C       1.20665258      0.63510393      0.46655294
O       1.29242709      1.81244679      0.81735860
C      -0.15103591     -0.01732660      0.41148843
C      -0.31256546     -1.32087696      0.11869789
C      -1.65146989     -2.00112605      0.08142616
C      -2.78644460     -1.15911029      0.66924759
C      -2.69816742      0.32875483      0.27111738
C      -2.88622174      0.49887692     -1.25035993
C      -3.81734832      1.11215296      0.98036137
C      -1.32239723      0.89123083      0.71300930
H       5.45563604      0.85613818     -2.00933282
H       6.54228396     -0.56433293     -1.51283480
H       5.18290854     -0.96845425      0.45132364
H       3.60742763      1.51721337     -0.54760192
H       3.85913170      1.07728186      1.13551037
H       2.52406113     -1.01123965      0.80877536
H       2.29433721     -0.58464635     -0.91191191
H       0.53151646     -1.96503657     -0.10917391
H      -1.58992415     -2.94572053      0.63449304
H      -1.87948596     -2.26144866     -0.95892049
H      -2.74937412     -1.24190875      1.76448205
H      -3.74936401     -1.58682698      0.36294469
H      -3.84019772      0.06968188     -1.57707814
H      -2.09124380      0.01613756     -1.82708146
H      -2.88861590      1.55923025     -1.52815863
H      -3.76813665      2.17949314      0.73710720
H      -4.80620165      0.74549933      0.68276413
H      -3.74188239      1.01562858      2.06929089
H      -1.17397891      1.86761958      0.23365107
H      -1.32685819      1.07064245      1.79678304
