53
CN(C)CCOc1cncc(-c2cccc(-c3cn4cccc(C(N)=O)c4n3)c2)c1
C      -8.45227650      1.72564748     -0.14929791
N      -7.19468326      1.05379702      0.19032877
C      -7.39837751     -0.39684041      0.20485218
C      -6.13739951      1.45555491     -0.76401891
C      -4.73158520      0.92052654     -0.42886387
O      -4.57212637     -0.38620579     -0.98969414
C      -3.38649368     -1.02111009     -0.76047852
C      -3.26527197     -2.29731073     -1.29780930
N      -2.16746226     -3.07922888     -1.17869498
C      -1.13470646     -2.55543053     -0.47943654
C      -1.13152638     -1.28697881      0.10356067
C       0.03382922     -0.77997865      0.84193758
C      -0.09482767     -0.31538457      2.15965083
C       1.01099763      0.16742361      2.85864154
C       2.26491406      0.19344637      2.24823941
C       2.43300507     -0.26229543      0.93429908
C       3.75621640     -0.21842022      0.32615284
C       4.11686204     -0.72749301     -0.90362833
N       5.45470826     -0.45654404     -1.04533627
C       6.30461619     -0.75899319     -2.10548439
C       7.59513446     -0.39556300     -2.03327254
C       8.06168823      0.30479036     -0.84564761
C       7.23395700      0.59753846      0.18344467
C       7.80202291      1.32092667      1.36155441
N       6.93431879      1.59946592      2.37125103
O       8.98014605      1.65518579      1.43552126
C       5.85843509      0.20873857      0.10683089
N       4.84692310      0.35786614      0.94405095
C       1.30890354     -0.74471579      0.24415716
C      -2.29671619     -0.51756585     -0.05232329
H      -8.81347793      1.44809176     -1.14626135
H      -9.23068757      1.47875894      0.58142237
H      -8.32952114      2.81401000     -0.11648935
H      -8.22866981     -0.66194643      0.86981516
H      -7.61961687     -0.79421322     -0.79218177
H      -6.52113698     -0.91404631      0.60530879
H      -6.41288141      1.16476765     -1.78608706
H      -6.06969623      2.55061824     -0.73628277
H      -4.58488598      0.90431426      0.65824934
H      -3.99366420      1.59265173     -0.88430010
H      -4.08334857     -2.73886038     -1.86051314
H      -0.27527195     -3.21591422     -0.38978066
H      -1.06200685     -0.33771474      2.65887911
H       0.89808025      0.52066013      3.88054337
H       3.11675815      0.57245843      2.80951060
H       3.56650169     -1.24760998     -1.67343133
H       5.88289720     -1.28192421     -2.95466045
H       8.30067941     -0.60635215     -2.83033119
H       9.11238698      0.58635551     -0.81887296
H       5.95555450      1.32613725      2.31511483
H       7.27046760      2.08748136      3.18778400
H       1.40995585     -1.08612580     -0.78354590
H      -2.32164122      0.47755330      0.38034471
