38
OCc1ccccc1OC1OC(CO)C(O)C(O)C1O
O       3.25378726     -2.99397588     -1.53186555
C       2.55541368     -1.91041382     -2.12875468
C       2.82409403     -0.62813679     -1.38649962
C       3.96766382      0.12062250     -1.71048130
C       4.26688870      1.29517064     -1.01819906
C       3.44048548      1.72088986      0.01783355
C       2.31042305      0.97948312      0.36307595
C       1.98757376     -0.17778781     -0.35102181
O       0.90138121     -0.95000676     -0.03139846
C      -0.32087959     -0.20881109      0.13351637
O      -0.51287115      0.13314331      1.51005618
C      -1.74830071      0.80618778      1.79444116
C      -1.74776879      2.25450466      1.26653138
O      -2.84183011      3.01012443      1.77203235
C      -2.95939823     -0.02595248      1.33242982
O      -4.18611272      0.70493680      1.47143012
C      -2.80508955     -0.46666149     -0.12847106
O      -3.86729766     -1.38445715     -0.44157777
C      -1.45247635     -1.13255783     -0.35845416
O      -1.46463278     -2.38978081      0.35202143
H       3.46300601     -2.73921939     -0.61614197
H       1.48699970     -2.15238911     -2.14524209
H       2.87515211     -1.82600742     -3.17393252
H       4.63607079     -0.21640772     -2.50192448
H       5.15424903      1.86794354     -1.27723556
H       3.68522159      2.62488588      0.56988819
H       1.70749283      1.30721953      1.20661879
H      -0.30640390      0.69869231     -0.48485361
H      -1.81628775      0.88271622      2.88722297
H      -0.82154752      2.75774580      1.56008146
H      -1.78865858      2.28659158      0.17329720
H      -3.63922420      2.44239291      1.69132640
H      -3.04721331     -0.91357100      1.97041338
H      -4.87447268      0.12048788      1.08704560
H      -2.92998282      0.39398506     -0.79561477
H      -3.54375599     -2.26094644     -0.13670963
H      -1.31497540     -1.38846184     -1.41462621
H      -0.52672324     -2.64217898      0.47374202
