10
O=[Si]([O-])[O-].O=[Si]([O-])[O-].[Al+3].[Na+]
O      -0.25027160      1.58447103     -0.00564780
Si      0.01227438      0.02768087     -0.00549632
O       1.62660607     -0.60770639      0.05115348
O      -1.38860886     -1.00444551     -0.04000936
O      -0.19970771      1.60757094     -0.00904265
Si      0.00442626      0.05225090      0.00017544
O       1.57641207     -0.66049252      0.06902675
O      -1.38113062     -0.99932933     -0.06015953
Al      0.00000000      0.00000000      0.00000000
Na      0.00000000      0.00000000      0.00000000
