43
CCC(=O)OCN1C(=O)NC(c2ccccc2)(c2ccccc2)C1=O
C       6.43497726     -1.72083923      0.60994839
C       4.92791032     -1.60138577      0.75261412
C       4.42888151     -0.23074675      0.36412004
O       5.12328805      0.69757888     -0.02299803
O       3.07705918     -0.18223958      0.50964404
C       2.52795938      1.08941372      0.16439118
N       1.10729663      1.02036543      0.35801815
C       0.47895771      1.29845646      1.52342788
O       0.98377746      1.66811950      2.57014423
N      -0.86499485      1.08523167      1.36638732
C      -1.20721217      0.52734355      0.06994699
C      -2.12332034      1.45261381     -0.74533411
C      -2.54312360      1.05952041     -2.03158963
C      -3.37452610      1.87621336     -2.80043757
C      -3.80078724      3.10317846     -2.30146686
C      -3.39412086      3.51548890     -1.03556682
C      -2.56192656      2.70000708     -0.26377310
C      -1.80747157     -0.86820459      0.30075499
C      -1.12149339     -2.05537228     -0.00950897
C      -1.69938542     -3.30462037      0.23623004
C      -2.96919154     -3.39306453      0.79935276
C      -3.66615533     -2.23267493      1.11910183
C      -3.09147868     -0.98371658      0.87515560
C       0.22264104      0.52612897     -0.55832247
O       0.52216005      0.13085487     -1.68078225
H       6.76703542     -2.72300647      0.89789175
H       6.94913322     -0.99339696      1.24688945
H       6.74762016     -1.54021863     -0.42390570
H       4.64575553     -1.79074728      1.79364119
H       4.44259217     -2.34231524      0.10862162
H       2.73396500      1.31216320     -0.88863198
H       2.94305593      1.86703822      0.81550457
H      -1.48571709      1.10268972      2.16220158
H      -2.21863733      0.10659449     -2.44968765
H      -3.68540245      1.55332451     -3.79093306
H      -4.44616980      3.73983794     -2.90102873
H      -3.72249226      4.47690116     -0.64797962
H      -2.26135008      3.06265842      0.71667836
H      -0.12772409     -2.04091879     -0.45234461
H      -1.15427785     -4.21143263     -0.01525716
H      -3.41519751     -4.36627552      0.98708597
H      -4.65924177     -2.29813579      1.55650834
H      -3.66266813     -0.09241082      1.13075574
