19
CC(=O)c1ccc(N)cc1
C      -3.11813259      0.60331801      0.34617703
C      -2.18023285     -0.57476650      0.38559046
O      -2.60261493     -1.71686783      0.55553420
C      -0.71541018     -0.33862996      0.21718070
C       0.14475446     -1.44272643      0.22018364
C       1.52339731     -1.26654664      0.06329607
C       2.06982137      0.01245161     -0.05431216
N       3.43045168      0.17541966     -0.33097071
C       1.20319305      1.10634430     -0.11484145
C      -0.17880727      0.94028055      0.03970783
H      -3.05288535      1.10789186     -0.62124382
H      -2.89400645      1.29352012      1.16354485
H      -4.14578286      0.24869612      0.47380336
H      -0.25350021     -2.44979386      0.33043409
H       2.16583123     -2.14298697      0.03543445
H       3.79680076      1.09158603     -0.09267731
H       4.01625479     -0.57615861      0.02010754
H       1.59892632      2.10481231     -0.28456661
H      -0.80805829      1.82415623      0.00409029
