30
C1CN(SSN2CCOCC2)CCO1
C      -4.00101942     -0.92305144      0.23203079
C      -2.58041815     -1.50485540      0.21975349
N      -1.54514346     -0.44977805      0.15934842
S      -1.03008698      0.26672953      1.57812384
S       0.65446654     -0.86730591      1.89184134
N       1.69509987     -0.03328357      0.91008703
C       1.96022038     -0.46996268     -0.47087963
C       3.46041701     -0.56086834     -0.77698895
O       4.15010560      0.68300781     -0.60867435
C       3.55940353      1.52358303      0.38945147
C       2.80831832      0.74285181      1.47489881
C      -1.83815175      0.41053906     -1.00697343
C      -3.26992621      0.96302305     -0.97570438
O      -4.23169506     -0.09931547     -0.91918609
H      -4.19132001     -0.33742305      1.13915313
H      -4.73291764     -1.73661936      0.20430809
H      -2.43213956     -2.15654632      1.08931105
H      -2.46437596     -2.14338919     -0.66564465
H       1.49849525     -1.44231578     -0.68185008
H       1.49927111      0.25899823     -1.14867802
H       3.94214977     -1.30745833     -0.13437610
H       3.61303701     -0.88097441     -1.81282210
H       2.88773209      2.22851341     -0.11498054
H       4.36521363      2.11236624      0.83967169
H       3.50816442      0.06273435      1.97715801
H       2.43165590      1.45095500      2.22242140
H      -1.11667928      1.23331162     -1.08170395
H      -1.70866399     -0.19385521     -1.91419427
H      -3.42599951      1.63722867     -0.12533713
H      -3.46521347      1.53316072     -1.88956489
