20
NCCN1CCNC1=O
N       3.28007356     -0.34154781      0.23673881
C       1.84573759     -0.56879358      0.04952894
C       1.04577462      0.74217807      0.09508016
N      -0.37997729      0.53466119     -0.07634349
C      -1.24781659      0.11232441      1.00170684
C      -2.60368305     -0.00699898      0.31710146
N      -2.25958449     -0.17803764     -1.06789639
C      -0.96073160      0.24465287     -1.30806542
O      -0.44411724      0.32583482     -2.40758418
H       3.62577859      0.23792077     -0.52949178
H       3.76835720     -1.23259116      0.14766718
H       1.49346851     -1.24632684      0.83488647
H       1.68410754     -1.07640304     -0.90814543
H       1.20122087      1.26867898      1.04340874
H       1.38477296      1.39922640     -0.71494229
H      -0.90440654     -0.86198398      1.36497234
H      -1.24342133      0.83968939      1.81760161
H      -3.18208693      0.91811744      0.40709499
H      -3.19759535     -0.85132972      0.67468890
H      -2.90587105     -0.25927157     -1.84123619
