28
O=C(O)Cc1ccc(-c2ccccc2)cc1
O       3.96223472      1.28791208      1.52102491
C       4.44291512      0.73887430      0.54475967
O       5.77842949      0.78328192      0.34055852
C       3.73985952     -0.03979577     -0.53979909
C       2.23819954     -0.08119967     -0.39127566
C       1.43420753      0.88297632     -1.01008102
C       0.04371030      0.84794906     -0.86282424
C      -0.57965639     -0.14367958     -0.08963949
C      -2.04294063     -0.17624324      0.06672890
C      -2.63451837     -0.18496398      1.34095794
C      -4.02370565     -0.21540620      1.49070308
C      -4.84564306     -0.23875926      0.36687841
C      -4.27997820     -0.23081710     -0.90557297
C      -2.89056499     -0.19910178     -1.05342912
C       0.23645630     -1.10011350      0.53403513
C       1.62712494     -1.07023967      0.38807776
H       6.11009343      1.30590636      1.10134884
H       4.13127945     -1.06410400     -0.53870961
H       3.99518168      0.40849351     -1.50748887
H       1.88062724      1.67462302     -1.60770469
H      -0.55492883      1.61754288     -1.34629206
H      -2.01004417     -0.15462364      2.23177498
H      -4.46119339     -0.21756214      2.48554567
H      -5.92591251     -0.26256382      0.48270280
H      -4.91810806     -0.25155959     -1.78501377
H      -2.46838876     -0.20422984     -2.05629699
H      -0.21093653     -1.88698179      1.13819965
H       2.22620028     -1.82561486      0.89177893
