23
Clc1ccc(Oc2c(Cl)cc(Cl)cc2Cl)cc1
Cl     -5.13004080      0.82859551      1.28592911
C      -3.62113008      0.31708325      0.63738680
C      -3.50612786     -0.94745648      0.06491111
C      -2.27963342     -1.35855803     -0.46114416
C      -1.16802369     -0.51197000     -0.40679958
O      -0.01475582     -1.02037458     -0.96784440
C       1.18567667     -0.48810722     -0.55955754
C       1.78032543     -0.88701770      0.64516516
Cl      1.03360195     -2.04025321      1.69136103
C       3.01870491     -0.36501854      1.02394018
C       3.67024667      0.53928301      0.18799836
Cl      5.19602552      1.18201003      0.65500652
C       3.10433996      0.92195080     -1.02589139
C       1.86624370      0.39979195     -1.40289356
Cl      1.20166716      0.88725544     -2.92002949
C      -1.29334385      0.76152120      0.15713957
C      -2.52184780      1.17320322      0.68329302
H      -4.36218170     -1.61533170      0.02360320
H      -2.18860420     -2.34516189     -0.90924647
H       3.47722639     -0.66904009      1.96192530
H       3.62650948      1.61890632     -1.67690591
H      -0.45962960      1.45549088      0.19053589
H      -2.61524902      2.16319783      1.12211727
