33
COCCCCC(=O)c1ccc(C(F)(F)F)cc1
C       6.16822421      0.10041375     -0.62899330
O       4.77288323      0.34392741     -0.74770835
C       4.11335050      0.23890765      0.51342059
C       2.62099014      0.49331753      0.32292666
C       1.96323513     -0.57976053     -0.55390036
C       0.46300428     -0.34236635     -0.74081752
C      -0.35990994     -0.66266484      0.49824720
O       0.13040096     -1.17993701      1.50019406
C      -1.82184830     -0.34516478      0.48823966
C      -2.55528936     -0.54323638      1.66607316
C      -3.92404342     -0.26189201      1.70804248
C      -4.58465616      0.22809485      0.57282319
C      -6.06795077      0.51138994      0.60739468
F      -6.80827782     -0.56692536      0.23134093
F      -6.51774722      0.86438929      1.84341357
F      -6.43410526      1.52596184     -0.22488717
C      -3.84976480      0.41388727     -0.60829266
C      -2.47904759      0.13245285     -0.65133194
H       6.34999876     -0.91343902     -0.25959132
H       6.62991486      0.83395792      0.03894821
H       6.62003817      0.19713979     -1.61981880
H       4.27888080     -0.75750821      0.93930866
H       4.52526299      0.98866668      1.19856098
H       2.47892592      1.47258710     -0.15025059
H       2.14083377      0.52834946      1.30648096
H       2.43580377     -0.57396599     -1.54363308
H       2.13978631     -1.57266269     -0.12302115
H       0.29442045      0.70035126     -1.03091952
H       0.11084164     -0.99739171     -1.54625867
H      -2.06279779     -0.92082691      2.56146426
H      -4.47197745     -0.42731297      2.63523959
H      -4.34595231      0.78159485     -1.50649770
H      -1.95342768      0.28966532     -1.58902605
