48
O=C1C=Cc2ccccc2/C1=N/Nc1ccc(N=Nc2ccc(S(=O)(=O)O)cc2)cc1.[Na+]
O      -4.07001198     -3.28985179     -0.73429539
C      -4.94669823     -2.45334242     -0.55035714
C      -6.36579496     -2.80839506     -0.74717944
C      -7.32536423     -1.88006676     -0.69412957
C      -7.02884731     -0.46967630     -0.44270626
C      -8.06928961      0.46911132     -0.46618700
C      -7.81151392      1.82044346     -0.22202690
C      -6.51384798      2.24715269      0.04909028
C      -5.47038284      1.32274766      0.07881324
C      -5.72521799     -0.03376504     -0.16888080
C      -4.61483932     -1.02105892     -0.12915408
N      -3.42907325     -0.63397840      0.25742544
N      -2.43852890     -1.56020812      0.31264415
C      -1.10249653     -1.12902614      0.41392077
C      -0.76164136      0.18813238      0.74432942
C       0.57650294      0.57111520      0.89253292
C       1.60595823     -0.35723160      0.72339781
N       2.93843051      0.05427569      0.91238609
N       3.62554730     -0.17819917     -0.10670791
C       4.95141876      0.25194935      0.08042310
C       5.76715258     -0.27895996      1.09185631
C       7.08853046      0.14902651      1.24164504
C       7.60125416      1.10476373      0.36143214
S       9.26600631      1.67137069      0.57309244
O      10.14832977      0.60896961      0.15011854
O       9.35919991      3.01251081      0.03688502
O       9.42926024      1.85478837      2.16812947
C       6.80965474      1.63807326     -0.65812458
C       5.48892121      1.20286216     -0.79666156
C       1.27026238     -1.68445467      0.43160029
C      -0.06857239     -2.06547380      0.28364822
Na      0.00000000      0.00000000      0.00000000
H      -6.57878853     -3.85065356     -0.95245571
H      -8.36186278     -2.16540405     -0.85193901
H      -9.09215489      0.16168346     -0.67447845
H      -8.62571621      2.54133896     -0.24290846
H      -6.31320619      3.29847116      0.24143141
H      -4.46049070      1.66530258      0.29797648
H      -2.56512262     -2.46002971     -0.16758755
H      -1.54353763      0.92833508      0.89149485
H       0.81478804      1.60056411      1.14509535
H       5.36351406     -1.03061860      1.76637537
H       7.70728511     -0.26848277      2.03292221
H       9.64178303      2.79824132      2.33209209
H       7.20706023      2.38319191     -1.34369666
H       4.86631433      1.60862192     -1.59067454
H       2.05475796     -2.42863949      0.32376292
H      -0.29893192     -3.10552706      0.06590181
