26
CC(C)C(NC(=O)CN)C(=O)O
C      -2.01507979      0.40183617     -1.42413535
C      -1.83052861     -0.10208484      0.00994084
C      -1.79996834      1.08483698      0.97916653
C      -0.58890627     -1.01312681      0.13522854
N       0.65886509     -0.27598717     -0.04442645
C       1.42025236     -0.34683196     -1.18574888
O       1.05962558     -0.91728648     -2.21055356
C       2.78633952      0.34090384     -1.06768647
N       2.86807424      1.18399002      0.14482545
C      -0.59936464     -1.74608310      1.48408812
O      -1.47959616     -2.48424039      1.89911531
O       0.47831378     -1.48503531      2.25910291
H      -1.20203497      1.06953974     -1.72707776
H      -2.95418135      0.95777508     -1.51870004
H      -2.05235080     -0.43491552     -2.12944218
H      -2.71787480     -0.70043366      0.25698099
H      -0.96605300      1.76155393      0.76524877
H      -2.72580088      1.66550836      0.90271771
H      -1.70857304      0.74814712      2.01662973
H      -0.63024506     -1.80194823     -0.62617194
H       1.16518412      0.01969176      0.79072591
H       2.94331727      0.96213330     -1.95457128
H       3.55527529     -0.43588177     -1.02291782
H       3.79612030      1.60715898      0.17468288
H       2.21672811      1.96274496      0.02838644
H       0.32246205     -2.02196499      3.06459160
