18
Cc1cnc2c(=O)[nH]cnc2n1
C       3.05230053     -1.03886316     -0.56777498
C       1.73370863     -0.38616061     -0.29294567
C       1.65597234      0.99068837     -0.08281100
N       0.49301793      1.63268706      0.16918872
C      -0.59608141      0.81990400      0.20029069
C      -1.93016412      1.39913718      0.46658433
O      -2.12736372      2.59209688      0.66640037
N      -2.97194478      0.49831966      0.47846194
C      -2.80436206     -0.83954891      0.26169529
N      -1.66817420     -1.39551729      0.02582312
C      -0.54426506     -0.55599867     -0.00616308
N       0.63015279     -1.17816574     -0.25685537
H       3.73607912     -0.87863328      0.27152341
H       3.49690536     -0.62509147     -1.47814192
H       2.93111682     -2.11783711     -0.70756302
H       2.53983488      1.62051221     -0.11236980
H      -3.88851791      0.88457909      0.65972182
H      -3.73821514     -1.42210823      0.30493515
