30
CC(C)CCCCCCO
C      -2.92846685      1.48586267     -0.10189788
C      -2.74180787      0.04809174      0.38475835
C      -4.05267890     -0.72567907      0.22335783
C      -1.60928398     -0.68310999     -0.35978491
C      -0.22796898     -0.05854678     -0.13514357
C       0.87055299     -0.90075324     -0.79012186
C       2.26110651     -0.26404761     -0.69956221
C       2.78435185     -0.15282424      0.73596972
C       4.23938880      0.30209031      0.79520069
O       4.37915142      1.63103622      0.31394993
H      -2.04965010      2.09892659      0.11915488
H      -3.78358381      1.95612769      0.39575312
H      -3.10626527      1.51955775     -1.18206637
H      -2.49869653      0.07661143      1.45449474
H      -4.86218755     -0.24085180      0.77934246
H      -3.95195826     -1.74676649      0.60626561
H      -4.35216875     -0.78555610     -0.82858974
H      -1.58129474     -1.72716016     -0.02180713
H      -1.82751258     -0.70713744     -1.43514834
H      -0.04369064      0.02583819      0.94146544
H      -0.19995530      0.95290065     -0.55481439
H       0.62840456     -1.04291008     -1.85074549
H       0.89353400     -1.89861026     -0.33540451
H       2.95570983     -0.87653253     -1.28764447
H       2.23592984      0.72615230     -1.16936585
H       2.69776185     -1.12536089      1.23400600
H       2.16866943      0.56401091      1.29077973
H       4.58736971      0.28911163      1.83280791
H       4.89227096     -0.35696655      0.21366813
H       4.22296836      1.61649516     -0.64517894
