17
Cc1cc(=O)n2[nH]cnc2n1
C       2.80927829     -0.70479744     -0.23755591
C       1.38463769     -0.26616509     -0.04153772
C       1.09550345      0.85188931      0.65333655
C      -0.32045143      1.25511727      0.82419798
O      -0.63039419      2.32354774      1.33744164
N      -1.17964496      0.32697132      0.31724645
N      -2.56606680      0.42006117      0.28874949
C      -2.87247977     -0.62434154     -0.54926024
N      -1.89048529     -1.37110367     -0.96294421
C      -0.78787883     -0.74850026     -0.43023551
N       0.43871257     -1.08243316     -0.63845751
H       3.52113190     -0.02461266      0.24191718
H       2.96009616     -1.70215070      0.18863355
H       3.05040276     -0.74395012     -1.30500352
H       1.84468167      1.49282462      1.09843413
H      -2.92450473      1.33848750      0.03796372
H      -3.93253850     -0.74084429     -0.82292608
