6
NC=O
N      -0.64902508     -0.16162453      0.18038033
C       0.61916228      0.17048327     -0.17686692
O       1.55319098     -0.61452489     -0.13763183
H      -0.82338990     -1.10754650      0.49386641
H      -1.41531264      0.49496256      0.14450589
H       0.71537435      1.21825009     -0.50425389
