18
Cn1cc2nccnc2nc1=O
C       2.92587979      0.59200295     -0.32244345
N       1.58931374      0.14651368      0.03908356
C       0.51066804      0.67695769     -0.63635033
C      -0.74309641      0.29804099     -0.37856818
N      -1.83286666      0.81192471     -1.03525190
C      -2.96992874      0.33534603     -0.64967081
C      -3.09274535     -0.69304563      0.42580415
N      -2.07435553     -1.18385732      1.04477588
C      -0.81959128     -0.74035281      0.69816127
N       0.17032441     -1.26020099      1.33110658
C       1.43920165     -0.84790845      1.01497097
O       2.41640839     -1.34082841      1.57324193
H       2.93878337      1.68338680     -0.40908997
H       3.66951697      0.29699080      0.42277792
H       3.19437884      0.14472313     -1.28464547
H       0.71812857      1.42431966     -1.39584601
H      -3.91956296      0.66552421     -1.09778489
H      -4.12045685     -1.00953706      0.65972875
