20
CC(=O)Oc1ccccc1[N+](=O)[O-]
C       3.28927495      0.94556901     -0.19080999
C       1.95654062      0.32505223     -0.48237874
O       1.61491118     -0.11477825     -1.57196675
O       1.18642558      0.33441467      0.67559504
C      -0.09235959     -0.19860437      0.48788243
C      -0.31283192     -1.47121525      1.02399268
C      -1.56460543     -2.07461744      0.89127776
C      -2.60033398     -1.40804085      0.23420353
C      -2.39243220     -0.12862303     -0.28670390
C      -1.13590136      0.48259656     -0.15191914
N      -0.96183663      1.83709477     -0.67312311
O      -1.70310363      2.19168207     -1.60164219
O      -0.11009763      2.56400143     -0.14134786
H       3.15333285      1.98136518      0.12996447
H       3.80650517      0.36778058      0.57914613
H       3.89774114      0.93896359     -1.09962469
H       0.48894140     -1.99756930      1.53577006
H      -1.73281275     -3.06937797      1.29873160
H      -3.57277609     -1.88519782      0.13037395
H      -3.21458168      0.37950418     -0.78742130
