35
Cn1c(=O)c2[nH]c(/C=C/c3ccccc3)nc2n(C)c1=O
C      -5.68107549      1.51936038      0.83728791
N      -4.38120643      0.91124244      0.63348934
C      -3.26751424      1.75042220      0.55046976
O      -3.29581909      2.97353468      0.63682535
C      -2.06155348      1.03504012      0.35122584
N      -0.77785069      1.47544654      0.21908205
C       0.01993672      0.36283859      0.04547662
C       1.41337199      0.55464963     -0.11642104
C       2.21731518     -0.50263596     -0.31155301
C       3.66935070     -0.39919779     -0.50489152
C       4.28542229     -1.22231646     -1.45603267
C       5.66744986     -1.16996979     -1.65314785
C       6.44813463     -0.30236839     -0.89233675
C       5.84883664      0.50877339      0.06913344
C       4.46634478      0.45742999      0.26589371
N      -0.71254457     -0.74051066      0.06318288
C      -1.99162111     -0.31645850      0.25229833
N      -3.11397035     -1.10320824      0.34101085
C      -3.00173980     -2.54601059      0.23196311
C      -4.35774040     -0.49784409      0.53757862
O      -5.39805144     -1.15686676      0.62520732
H      -5.62927346      2.60919527      0.89877042
H      -6.33831889      1.24116994      0.00688249
H      -6.11358199      1.13114526      1.76527236
H      -0.47688617      2.44063364      0.24349260
H       1.82069537      1.56076477     -0.09678080
H       1.80295843     -1.50885262     -0.36081996
H       3.69181613     -1.90710810     -2.05801485
H       6.13312480     -1.80888430     -2.39901125
H       7.52374776     -0.26377161     -1.04377542
H       6.45833715      1.17671189      0.67225577
H       4.02412806      1.08235415      1.03746290
H      -3.97373291     -3.03829579      0.31990007
H      -2.56894693     -2.79814237     -0.74134107
H      -2.34954307     -2.91483376      1.02996446
