27
Brc1c(NC2=NCCN2)ccc2nccnc12
Br      0.98011010     -2.63932676     -1.56524713
C       1.29342840     -0.94914726     -0.70602620
C       0.17916450     -0.19576290     -0.26831589
N      -1.13228446     -0.66279503     -0.50658087
C      -2.29673167     -0.24985768      0.05787680
N      -2.51933646      0.69307775      0.92576086
C      -3.98344414      0.64034706      1.17258721
C      -4.56694608     -0.25208366      0.07834564
N      -3.38513198     -0.94649851     -0.39159412
C       0.44077184      1.03728288      0.32571874
C       1.75264915      1.48077600      0.50713119
C       2.83871207      0.72821225      0.09409060
N       4.07565247      1.22158506      0.30191759
C       5.10955383      0.46448830     -0.11733952
C       4.92004051     -0.75205069     -0.73059083
N       3.68850739     -1.25869876     -0.94764374
C       2.62290109     -0.52110293     -0.53378876
H      -1.15089308     -1.61986735     -0.83947692
H      -4.16258525      0.21608809      2.16676710
H      -4.41644920      1.64483781      1.14004132
H      -5.32566938     -0.94043788      0.45991028
H      -4.99698926      0.35063514     -0.72864684
H      -3.37703453     -1.12948271     -1.38789671
H      -0.36644079      1.68513605      0.65782867
H       1.92616968      2.44428580      0.98187000
H       6.09980905      0.86902407      0.05580014
H       5.75246621     -1.35866411     -1.06723125
