38
CCC(=O)N(c1ccccc1)C1CC[NH2+]CC1
C      -0.76274212      3.59871867     -0.49923827
C      -1.21908000      2.21506123     -0.05913387
C      -0.03876799      1.27101919      0.15254067
O       1.10311776      1.71918766      0.31994609
N      -0.26557641     -0.10821689      0.08685529
C      -1.57293764     -0.68264940      0.17850377
C      -2.45448193     -0.30291318      1.19798899
C      -3.72135229     -0.88399887      1.29430078
C      -4.11540134     -1.85629971      0.37881337
C      -3.24090962     -2.25545278     -0.62847045
C      -1.97280509     -1.67726828     -0.72447275
C       0.87075300     -1.07689987      0.04803118
C       1.63885654     -1.04849684     -1.28409326
C       2.71399468      0.02258854     -1.41379236
N       3.23596124      0.44087520     -0.08886812
C       3.22971858     -0.60953523      0.95177656
C       1.79130709     -0.97661684      1.28457385
H      -0.17914301      3.54299039     -1.42416043
H      -0.13675463      4.07049852      0.26543500
H      -1.62738499      4.24571238     -0.67670789
H      -1.76566411      2.32154267      0.88136312
H      -1.88648223      1.81035518     -0.82652264
H      -2.16224311      0.41510526      1.95929202
H      -4.39914617     -0.58556006      2.09133938
H      -5.10267489     -2.30724882      0.45428523
H      -3.55065799     -3.01551938     -1.34247647
H      -1.32380895     -1.99653173     -1.53473841
H       0.42889073     -2.08069512      0.11265517
H       2.13753472     -2.02200542     -1.39342408
H       0.94849524     -0.97718287     -2.13303438
H       2.33215379      0.92392796     -1.90380339
H       3.56447645     -0.34836009     -1.99544568
H       4.15972478      0.88101789     -0.18118289
H       2.60688720      1.21081559      0.23794628
H       3.74742030     -0.20702182      1.82773652
H       3.79896512     -1.46150994      0.56520225
H       1.38691753     -0.26615798      2.01617886
H       1.80283976     -1.94327519      1.80480095
