28
O=C(CC(Cl)Cl)NC1=C(Cl)C(=O)c2ccccc2C1=O
O       2.69267467     -0.41428888     -1.54899384
C       2.69393002     -0.10253224     -0.36388216
C       3.94855191     -0.13221082      0.47510075
C       5.17433060      0.12287815     -0.38687323
Cl      5.26327476      1.84202484     -0.86917765
Cl      6.64876319     -0.27613925      0.54585451
N       1.56342687      0.19368839      0.37549021
C       0.26961448      0.31053028     -0.12321829
C      -0.12281271      0.92674771     -1.25144979
Cl      0.93967810      1.88011708     -2.23954392
C      -1.55378257      0.95961254     -1.67508349
O      -1.93235249      1.53003745     -2.69256422
C      -2.54465803      0.27835946     -0.82306830
C      -3.89047866      0.24132095     -1.21472853
C      -4.83903408     -0.38846913     -0.40712722
C      -4.44962353     -0.97993784      0.79334744
C      -3.11122761     -0.94292920      1.18639712
C      -2.15896266     -0.31296940      0.37341767
C      -0.75228018     -0.28056829      0.79398848
O      -0.40062343     -0.73800790      1.87953119
H       3.99582898     -1.13095683      0.92708935
H       3.87651283      0.59866301      1.28981396
H       5.19225910     -0.48420421     -1.29626957
H       1.59099394     -0.11223388      1.35036440
H      -4.20623310      0.70393392     -2.14921118
H      -5.88240577     -0.41523792     -0.71506274
H      -5.18899637     -1.46976853      1.42376436
H      -2.81636827     -1.40745946      2.12617543
