34
C/C=C/OC1CCC(O/C=C/C)CC1
C       5.64677726     -0.21597642     -0.58634876
C       4.19755901      0.09107914     -0.38759217
C       3.39887009     -0.63051739      0.41155351
O       2.07195044     -0.47293642      0.68807132
C       1.34539488      0.61553137      0.09923244
C       0.85703015      0.23665574     -1.30382847
C      -0.15458123     -0.91308228     -1.27135709
C      -1.34539484     -0.61553322     -0.35047972
O      -2.07195170      0.47293516     -0.93931687
C      -3.39887050      0.63051658     -0.66279652
C      -4.19755871     -0.09107983      0.13635023
C      -5.64677579      0.21597882      0.33510883
C      -0.85702893     -0.23665769      1.05258088
C       0.15458032      0.91308195      1.02010709
H       5.97016199     -1.08659119     -0.00698754
H       6.25416979      0.64161919     -0.28127307
H       5.84277117     -0.41792188     -1.64384013
H       3.82177265      0.94409255     -0.94173727
H       3.76435461     -1.49030494      0.96506872
H       1.96543235      1.51909007      0.06647387
H       1.69877378     -0.06619523     -1.93608556
H       0.40065623      1.11399995     -1.77803843
H       0.34425792     -1.83192095     -0.94014523
H      -0.51334345     -1.08739928     -2.29299287
H      -1.96543199     -1.51909204     -0.31772146
H      -3.76435578      1.49030451     -1.21631012
H      -3.82177251     -0.94409344      0.69049524
H      -5.97015974      1.08659552     -0.24425044
H      -5.84276876      0.41792372      1.39260083
H      -6.25417131     -0.64161389      0.03003337
H      -1.69877275      0.06619172      1.68483800
H      -0.40065327     -1.11400140      1.52679013
H       0.51333838      1.08740320      2.04174275
H      -0.34425976      1.83191828      0.68889077
