37
CC1CCCC(OC2CCCC(C)O2)O1
C      -3.24997664     -1.81214910      1.42529373
C      -2.71087925     -0.42168775      1.11869428
C      -3.83461921      0.51873776      0.67871542
C      -3.26912346      1.87276037      0.26369954
C      -2.13710398      1.69164003     -0.73904183
C      -1.10120355      0.69267829     -0.22238272
O      -0.13306800      0.51910925     -1.25101363
C       0.98510505     -0.23976956     -0.80459785
C       1.84359600     -0.54662597     -2.03210861
C       3.11771707     -1.28209679     -1.63782363
C       3.83908475     -0.53614739     -0.52042019
C       2.87690734     -0.22600768      0.62796987
C       3.55597431      0.61840232      1.69747983
O       1.75041802      0.50909854      0.14268248
O      -1.73970615     -0.55090266      0.07706553
H      -3.70634074     -2.26205120      0.53660872
H      -2.43495289     -2.47763734      1.72999719
H      -3.99446264     -1.78277421      2.22660305
H      -2.21741167     -0.03183804      2.01810382
H      -4.56788067      0.64819025      1.48243510
H      -4.36133420      0.08669453     -0.18189885
H      -4.06011397      2.49568153     -0.16793762
H      -2.89164667      2.39792120      1.14957413
H      -1.66151327      2.65370117     -0.96175608
H      -2.55337495      1.32607834     -1.68704887
H      -0.62123029      1.09141456      0.68084853
H       0.64341889     -1.17797988     -0.34830470
H       2.11261504      0.39338049     -2.53175981
H       1.27113564     -1.13077529     -2.76177157
H       3.77644033     -1.38902891     -2.50653294
H       2.86495067     -2.29375750     -1.29766401
H       4.69041848     -1.12619294     -0.16338710
H       4.23640397      0.40065846     -0.93185719
H       2.52191904     -1.15606465      1.08993179
H       3.88052553      1.58246987      1.29044039
H       2.85447551      0.84100585      2.50885428
H       4.42483659      0.10386404      2.11884337
