25
C=C(C)[C@@H]1CC=C(C)C(=O)C1
C      -2.61595479     -0.85702171     -1.44853302
C      -2.12682270     -0.34401465     -0.30603292
C      -3.07389469      0.16742499      0.75191384
C      -0.64075165     -0.26040663      0.04431750
C      -0.14418921      1.19794092      0.01011936
C       1.33455648      1.31486859      0.24568849
C       2.20962943      0.30299531      0.12611384
C       3.67316443      0.42356100      0.40966938
C       1.71880632     -1.02756863     -0.34652233
O       2.48843435     -1.98429964     -0.41524779
C       0.28337348     -1.13432487     -0.81370329
H      -1.98376205     -1.24784260     -2.23851007
H      -3.68588893     -0.90167378     -1.63527671
H      -2.94252753      1.24316386      0.90184242
H      -4.12247059     -0.00121769      0.48361110
H      -2.89305624     -0.34371644      1.70311361
H      -0.53947703     -0.62469142      1.07837449
H      -0.65582351      1.77690167      0.78844175
H      -0.38451706      1.67061832     -0.95042476
H       1.69146844      2.29659269      0.55080230
H       3.94422143      1.43708876      0.72380797
H       3.96602489     -0.26168923      1.21181431
H       4.25887069      0.18587918     -0.48435757
H       0.26092670     -0.84344825     -1.87047936
H      -0.02034067     -2.18511976     -0.73547135
