25
O=C([O-])C(O)C(O)C(O)C(O)CO.[Na+]
O      -1.21459516      1.70112738      0.22239809
C      -2.18624380      0.88510525      0.25867831
O      -3.42976175      1.09849541      0.17802666
C      -1.79359952     -0.60605322      0.41220607
O      -2.99626238     -1.42503381      0.39016098
C      -0.79340937     -1.11246166     -0.63818276
O      -1.40841959     -1.18563737     -1.94382412
C       0.55905252     -0.37273175     -0.80647360
O       0.39598879      0.87490105     -1.50282984
C       1.39590929     -0.20028466      0.47652106
O       0.78753185      0.61111159      1.49221449
C       2.75778188      0.43836331      0.17446599
O       3.51611319      0.51752868      1.38796481
Na      0.00000000      0.00000000      0.00000000
H      -1.37447638     -0.73031620      1.41603497
H      -3.70452087     -0.75036833      0.24612060
H      -0.56936323     -2.15448881     -0.37679036
H      -1.48123322     -0.25855770     -2.24391440
H       1.15250468     -0.98187472     -1.50117231
H      -0.18329073      1.44766470     -0.93613534
H       1.55848685     -1.18090302      0.93842301
H       0.17586088      1.25458946      1.05102735
H       3.32904139     -0.14948023     -0.54961696
H       2.64701370      1.46107894     -0.19978432
H       2.85989099      0.81822571      2.05152474
