38
CC(C1CC1)C(O)(Cn1cncn1)c1ccc(Cl)cc1
C      -1.17894326      1.69175286      1.33133400
C      -1.38338096      0.95866377     -0.00454055
C      -2.79813223      0.38893275     -0.01905956
C      -3.95687755      1.27797835     -0.40500815
C      -3.52965462      0.16620711     -1.31880547
C      -0.28304278     -0.12955974     -0.32021819
O      -0.57278303     -0.61097082     -1.65478664
C      -0.37724828     -1.34348592      0.64663682
N       0.62519892     -2.36897578      0.41673067
C       1.43562018     -2.96464281      1.33112280
N       2.18565634     -3.86057512      0.73318803
C       1.77994735     -3.78403984     -0.56865554
N       0.81565855     -2.89096322     -0.81246403
C       1.10059515      0.54589284     -0.38009558
C       1.52645910      1.17045250     -1.56988951
C       2.77106722      1.80037734     -1.65696715
C       3.60985097      1.82509778     -0.54936386
Cl      5.14133184      2.60131765     -0.64903922
C       3.21008829      1.23195576      0.64396924
C       1.96322198      0.60235185      0.73005927
H      -0.23937837      2.25020667      1.35008914
H      -1.98290579      2.41824644      1.49702780
H      -1.19244924      1.00143241      2.18028631
H      -1.33205496      1.71873304     -0.79816285
H      -2.98470235     -0.30913921      0.78952706
H      -4.89091320      1.16039562      0.13284021
H      -3.75610064      2.29503110     -0.72280989
H      -4.16781931     -0.70642566     -1.39856880
H      -3.03288576      0.43107883     -2.24618868
H      -0.02176076     -1.41427787     -1.78916327
H      -1.33354778     -1.86509554      0.52217437
H      -0.29211080     -1.03851806      1.69446275
H       1.44256730     -2.72081717      2.38412335
H       2.19635399     -4.39739210     -1.35785169
H       0.88310427      1.16830219     -2.44969121
H       3.07376887      2.26642424     -2.59073585
H       3.86212503      1.25889968      1.51334584
H       1.68407629      0.17514809      1.68897620
