8
ClC(Cl)C(Cl)Cl
Cl      1.45684345      1.58963830     -0.43959112
C       0.74502434      0.06000410      0.17662198
Cl      1.70829987     -1.28448592     -0.52383041
C      -0.74502394     -0.06000355     -0.17662175
Cl     -1.70829775      1.28447711      0.52384859
Cl     -1.45684495     -1.58964470      0.43957221
H       0.90378744      0.04215928      1.25938757
H      -0.90378845     -0.04214463     -1.25938708
