57
CCCCOC(=O)c1ccc(C(=O)OCCCC)c(C(=O)OCCCC)c1
C       7.68351548     -0.74138863      1.80988349
C       7.42885779      0.52755649      1.01194741
C       7.46831159      0.31526999     -0.50399163
C       6.41083305     -0.64989563     -1.03389115
O       5.11150977     -0.17205473     -0.66280368
C       4.09567410     -1.00343785     -0.99839699
O       4.20321833     -2.06936558     -1.58180690
C       2.79321401     -0.44526157     -0.54390981
C       2.67281946      0.84712383     -0.01502446
C       1.42465371      1.32688997      0.39520751
C       0.28303370      0.51905022      0.27543744
C      -1.00619354      1.01859746      0.79072087
O      -1.74335074      0.37680823      1.51779806
O      -1.21625941      2.26392990      0.29663426
C      -2.49353791      2.84308219      0.61033534
C      -3.49161790      2.47846780     -0.48355245
C      -4.89108185      2.99979668     -0.17445726
C      -5.87030467      2.65238940     -1.28645852
C       0.39623661     -0.76824476     -0.26255027
C      -0.75653051     -1.67079503     -0.45277097
O      -0.71895042     -2.86189327     -0.19313253
O      -1.76538681     -0.99470532     -1.05240904
C      -2.93986385     -1.77039624     -1.34101052
C      -3.84596671     -1.84081572     -0.11462451
C      -5.12922504     -2.61364095     -0.40654447
C      -6.00628600     -2.72530518      0.83136413
C       1.65244848     -1.25056422     -0.66318480
H       6.87546743     -1.46726180      1.67768798
H       8.62529986     -1.21169524      1.51086124
H       7.74483179     -0.50715729      2.87734813
H       8.19413701      1.26711777      1.27599884
H       6.46494525      0.95589248      1.30988598
H       7.31813933      1.29275304     -0.97811961
H       8.46144793     -0.03948243     -0.80167489
H       6.47717712     -0.69382163     -2.12749614
H       6.57431952     -1.65629851     -0.63026958
H       3.54400563      1.49120036      0.08936420
H       1.35018831      2.32497137      0.82285448
H      -2.84133974      2.53065314      1.60229878
H      -2.35376132      3.92942991      0.64593725
H      -3.51840265      1.39066957     -0.61196854
H      -3.13641428      2.87999306     -1.44088325
H      -4.86515770      4.08813480     -0.04211377
H      -5.24859274      2.56538474      0.76755231
H      -5.58693315      3.14592695     -2.22131058
H      -5.90057161      1.57264819     -1.46289936
H      -6.87854087      2.98450661     -1.02142811
H      -2.66700455     -2.77031946     -1.69712313
H      -3.45668854     -1.26772228     -2.16464072
H      -3.30476914     -2.31186446      0.71566469
H      -4.08590903     -0.82502357      0.22227066
H      -5.69307548     -2.11142989     -1.20271608
H      -4.88390645     -3.62081185     -0.76432999
H      -5.48404481     -3.25933695      1.63308784
H      -6.92313987     -3.27518379      0.59755005
H      -6.28890424     -1.73593087      1.20326704
H       1.73742627     -2.25713945     -1.07436947
