22
O=C(O)C(CO)c1ccccc1
O       1.16302621     -2.52541553      0.13463631
C       1.74812354     -1.46591804     -0.03698351
O       3.10557541     -1.40091393      0.00787602
C       1.09387126     -0.12606683     -0.37612158
C       1.66452583      0.98682208      0.51094153
O       3.05001102      1.18294670      0.19002683
C      -0.42477453     -0.12860940     -0.28875153
C      -1.18641251      0.31580489     -1.38153328
C      -2.58010527      0.35645809     -1.30844354
C      -3.23046279     -0.04328181     -0.14357171
C      -2.48851152     -0.48526266      0.94906182
C      -1.09472690     -0.52540041      0.87960368
H       3.43406169     -0.47529650     -0.10809855
H       1.38441393      0.06426873     -1.41906690
H       1.14619449      1.93626413      0.33639646
H       1.59674369      0.73706328      1.57543270
H       3.33070581      1.98666563      0.67134651
H      -0.70224907      0.63231860     -2.30307437
H      -3.15924308      0.69595225     -2.16337906
H      -4.31560988     -0.01832755     -0.08967226
H      -2.99534848     -0.80921177      1.85453579
H      -0.53980885     -0.89085994      1.74177943
