17
O=C(O)c1cc([N+](=O)[O-])ccc1Cl
O      -1.69942578     -1.59941136      2.47726143
C      -1.47796860     -1.42059418      1.29760628
O      -2.00749765     -2.21877595      0.35231769
C      -0.63839514     -0.36639646      0.68764908
C       0.16084834     -0.70010617     -0.42093369
C       0.98598518      0.27156637     -1.00160235
N       1.82264627     -0.07784746     -2.15757442
O       2.48876133      0.82701912     -2.67862796
O       1.81196352     -1.25589617     -2.53908216
C       1.02273256      1.57248560     -0.48630922
C       0.22544920      1.89881568      0.61432544
C      -0.60514314      0.93612313      1.20461835
Cl     -1.58619259      1.45598519      2.52654308
H      -2.55031753     -2.86135788      0.85828775
H       0.13593133     -1.71494721     -0.81624053
H       1.65887076      2.33928502     -0.92596395
H       0.25175194      2.91405276      1.00772517
