19
CC1=CCCCC1
C       2.50419632      0.03503033     -0.22793858
C       1.00697676      0.09662287     -0.13738176
C       0.35178597      1.24743733      0.09938581
C      -1.14439944      1.35645530      0.15948613
C      -1.86053682      0.12298644     -0.39128623
C      -1.19269691     -1.15985379      0.09006982
C       0.27862052     -1.21185876     -0.33046235
H       2.90476243     -0.62852482      0.54518141
H       2.80891224     -0.34721559     -1.20752320
H       2.96577679      1.01915572     -0.09538185
H       0.90711062      2.16983450      0.25395137
H      -1.46771341      2.23804026     -0.40564147
H      -1.43660030      1.51949325      1.20371795
H      -2.91256774      0.13925480     -0.08505696
H      -1.84790362      0.14951362     -1.48845490
H      -1.26391480     -1.21826481      1.18378702
H      -1.72098342     -2.03282245     -0.30963244
H       0.77454154     -2.00357355      0.24370538
H       0.34463326     -1.49171063     -1.38924086
