32
CC/C=C/CCOC(=O)c1ccccc1O
C       5.91317300     -0.01789668     -0.40737671
C       5.13150431      0.19217330      0.88001155
C       3.72120454     -0.30749766      0.75190028
C       2.63688632      0.47549071      0.86449911
C       1.22543961     -0.02572527      0.75277050
C       0.49703492      0.58212172     -0.44577968
O      -0.82985182      0.03784211     -0.55487739
C      -1.77710408      0.64330470      0.20016735
O      -1.60146763      1.58741718      0.95848518
C      -3.10973124      0.01562926      0.01334506
C      -3.29675524     -1.06573299     -0.86210874
C      -4.56281707     -1.63734045     -1.01749793
C      -5.64912326     -1.13549002     -0.30228503
C      -5.47386272     -0.06164167      0.56966686
C      -4.21219319      0.51073330      0.72676281
O      -4.13753234      1.56055767      1.60466693
H       5.95533876     -1.07845730     -0.67783628
H       6.94053510      0.34101023     -0.28857890
H       5.45769356      0.52860276     -1.24017551
H       5.62300663     -0.34767248      1.69738239
H       5.14947516      1.25616241      1.14333932
H       3.60121196     -1.37379602      0.56860047
H       2.75730102      1.53952775      1.06158948
H       1.19675586     -1.11981841      0.67469281
H       0.69064006      0.21566810      1.67888443
H       0.46523534      1.67773903     -0.39463381
H       1.01889395      0.32395608     -1.37439550
H      -2.46633806     -1.47578895     -1.43180842
H      -4.70130486     -2.47489745     -1.69737425
H      -6.63417281     -1.57979730     -0.42284065
H      -6.31944426      0.33148527      1.12839847
H      -3.20963152      1.88213108      1.63295773
