48
C=CC1CN2CCC1C(C(O)c1ccnc3ccc(OC)cc13)C2
C       4.00569885     -0.59516244      3.37016109
C       3.33193535     -1.33573898      2.48039101
C       2.40840476     -0.85393197      1.37968373
C       2.76328993     -1.53056986      0.02371368
N       2.59120175     -0.60537536     -1.12427855
C       3.61748980      0.45445192     -1.01578107
C       3.59505241      1.12209884      0.36925571
C       2.32382268      0.67917808      1.13017919
C       1.13006743      0.97024193      0.16880170
C      -0.25639058      0.90869040      0.84884296
O      -0.25532792      1.79347994      1.97699378
C      -1.39726450      1.32003435     -0.06983188
C      -1.48486200      2.66880832     -0.44877264
C      -2.50762730      3.06689547     -1.28272531
N      -3.44262173      2.22850575     -1.76439296
C      -3.37428407      0.93494087     -1.41720995
C      -4.34457173      0.08492595     -1.92705119
C      -4.36933870     -1.28148273     -1.63329447
C      -3.39712718     -1.82101242     -0.80569548
O      -3.29097813     -3.13099502     -0.43137031
C      -4.25392472     -4.03237925     -0.96466559
C      -2.41150136     -0.97979724     -0.28042389
C      -2.37179157      0.40894376     -0.56808543
C       1.24470054      0.00842104     -1.03729250
H       3.95912622      0.48815770      3.38810725
H       4.62853794     -1.07056257      4.12262607
H       3.42820923     -2.41913538      2.55954530
H       1.41150877     -1.20596618      1.67444882
H       3.78948808     -1.92204014      0.02001972
H       2.11746184     -2.40639219     -0.12260008
H       4.61125094      0.03152908     -1.20798522
H       3.45926375      1.20437397     -1.80118369
H       3.60483893      2.21251309      0.25303955
H       4.49852163      0.85526063      0.92773156
H       2.22333587      1.24403700      2.06206949
H       1.27433444      1.99827973     -0.19571032
H      -0.42584960     -0.08329232      1.26812441
H      -1.17745639      1.86929358      2.28003558
H      -0.76564334      3.40112497     -0.09243589
H      -2.60678124      4.10254029     -1.59494763
H      -5.11051532      0.50052230     -2.57899784
H      -5.15911518     -1.88345886     -2.06922811
H      -5.26396919     -3.77256397     -0.63101830
H      -4.19562148     -4.07151506     -2.05745824
H      -4.02368850     -5.03163054     -0.58273867
H      -1.66602193     -1.44333925      0.35916788
H       0.49734543     -0.79219569     -0.99361568
H       1.03738705      0.55802672     -1.96414762
