16
C#CC(C)(C)C
C       2.18027120      1.49460350     -0.04976394
C       1.18970359      0.81555616     -0.02715450
C      -0.03191109     -0.02187573      0.00072848
C       0.07321424     -1.11290742     -1.07407854
C      -1.25914226      0.85718799     -0.27813007
C      -0.17117119     -0.67458909      1.38318415
H       3.05906420      2.09702760     -0.06982222
H       0.17887347     -0.67791663     -2.07513705
H       0.94492498     -1.75646137     -0.90538483
H      -0.81738687     -1.75147280     -1.07961366
H      -1.18762545      1.34266417     -1.25879163
H      -1.35970330      1.65128802      0.47139754
H      -2.18187396      0.26613184     -0.26447213
H      -0.24385153      0.08025911      2.17528299
H       0.69427859     -1.30690898      1.61484609
H      -1.06766460     -1.30258637      1.43690931
