47
CCCNC(=O)c1nnc2c(-c3cc(C)ccc3C)cccc2c1N
C       4.83835838     -0.21421456      3.39213641
C       5.58876769     -0.59996975      2.12534166
C       4.88461395     -1.70235814      1.33708984
N       3.60367739     -1.28005061      0.81645017
C       3.47231681     -0.54748100     -0.34853468
O       4.42131729     -0.25756714     -1.07245860
C       2.07073492     -0.13259010     -0.68546653
N       1.12028512     -0.64977389      0.12314765
N      -0.19398446     -0.35996708     -0.11637450
C      -0.57095894      0.45224513     -1.12376812
C      -1.93177852      0.75587065     -1.32725964
C      -2.98426037      0.18485257     -0.46337383
C      -3.43193176      0.92784052      0.64669101
C      -4.44013521      0.44769480      1.49209206
C      -4.86880937      1.24144269      2.68989201
C      -4.99307009     -0.80828354      1.23755179
C      -4.56375200     -1.56024509      0.14291754
C      -3.56708970     -1.07561637     -0.71892077
C      -3.12663580     -1.92788898     -1.87892644
C      -2.31879516      1.63012768     -2.35901221
C      -1.36999266      2.20630156     -3.18863663
C      -0.02502996      1.90441455     -2.99965937
C       0.40254388      1.01801976     -1.98217237
C       1.76855254      0.68176069     -1.78330013
N       2.78329273      1.29886032     -2.56369716
H       3.85377565      0.20402355      3.16082568
H       4.69975383     -1.08167264      4.04525634
H       5.40175142      0.54192439      3.94807882
H       6.59016243     -0.94899852      2.40277798
H       5.71929135      0.29072261      1.49987254
H       4.70904741     -2.57977702      1.96812319
H       5.51708170     -2.01050733      0.49721837
H       2.76219349     -1.44042333      1.36414463
H      -2.97822344      1.89568078      0.85637275
H      -4.79407717      2.31607729      2.49293196
H      -5.91251111      1.03069011      2.94581944
H      -4.23732538      0.99368726      3.54858956
H      -5.76039639     -1.21448357      1.89263364
H      -5.01140970     -2.53662804     -0.03002318
H      -2.09221468     -2.25664459     -1.73849704
H      -3.74901301     -2.82398982     -1.97620837
H      -3.21147818     -1.37368067     -2.81903086
H      -3.37205777      1.86387901     -2.50620510
H      -1.67340283      2.89099471     -3.97660727
H       0.69704440      2.38656383     -3.65470749
H       2.56981181      1.35388801     -3.55362094
H       3.70395946      0.86524930     -2.40595092
