36
CCC(C)C(C)(COC(N)=O)COC(N)=O
C      -3.02291407      0.20840898     -2.38091395
C      -1.59493917     -0.14210987     -1.97606547
C      -1.25838057      0.20381416     -0.50201639
C      -2.13022861     -0.63939898      0.44594147
C       0.28835682      0.09897807     -0.17331533
C       1.06973928      1.13167501     -1.02822771
C       0.58055770      0.43549452      1.31806494
O      -0.01933317      1.69270661      1.66703933
C       0.17398092      2.06262051      2.95180523
N      -0.43890459      3.24309605      3.18538645
O       0.79616925      1.44553640      3.80051304
C       0.84219606     -1.31772097     -0.47390438
O       2.23457711     -1.39250082     -0.12538136
C       2.81189414     -2.58327414     -0.40150495
N       4.10644249     -2.56482945     -0.01782844
O       2.26995921     -3.54934284     -0.91283249
H      -3.75607556     -0.42881281     -1.87913163
H      -3.15166595      0.06174276     -3.45895378
H      -3.25283734      1.25440834     -2.15279118
H      -0.93110673      0.40436325     -2.65266714
H      -1.43406368     -1.21009718     -2.16336966
H      -1.55274151      1.25152923     -0.34731791
H      -3.19490703     -0.45658643      0.27040237
H      -1.95209862     -1.71092931      0.31393137
H      -1.95452478     -0.38810826      1.49530025
H       0.62343825      2.12926952     -0.95267289
H       2.11267983      1.21425670     -0.70105784
H       1.09538046      0.85319178     -2.08591226
H       1.66237791      0.50699074      1.49095950
H       0.18930436     -0.34982582      1.97655624
H      -0.41564586      3.63003027      4.11614891
H      -0.97301202      3.68340360      2.45341407
H       0.30017119     -2.07175832      0.10756629
H       0.73849739     -1.54881896     -1.54015095
H       4.48058793     -1.75343505      0.44818450
H       4.65706895     -3.40396730     -0.11519824
