20
CCCC(=O)OCC
C      -3.47348789      0.16939283      0.19814751
C      -2.06773093      0.74716237      0.18726346
C      -1.03958154     -0.28975933     -0.25766554
C       0.36205209      0.27446765     -0.27168047
O       0.66999793      1.41805981      0.03056372
O       1.23245825     -0.69601212     -0.67263642
C       2.61244007     -0.30770795     -0.74065362
C       3.27408584     -0.48698140      0.61278382
H      -4.19304278      0.92885892      0.51964009
H      -3.76447507     -0.17333533     -0.79994761
H      -3.54382423     -0.67841224      0.88706648
H      -2.03811485      1.61481967     -0.48272643
H      -1.81926936      1.11383758      1.19046752
H      -1.05662221     -1.14496317      0.42724661
H      -1.27817571     -0.63708045     -1.26917941
H       2.72014564      0.71945664     -1.10760702
H       3.09295238     -0.96289924     -1.47463420
H       2.81085633      0.15872744      1.36547655
H       3.15907665     -1.51791420      0.96333689
H       4.34025939     -0.24971747      0.55769852
