32
Cn1nc(S(N)(=O)=O)sc1=NS(=O)(=O)c1ccc(Cl)c([N+](=O)[O-])c1
C       2.22102779      0.63184019      1.91917203
N       2.31478544     -0.02030974      0.62555602
N       3.60181629     -0.27733308      0.19735604
C       3.56233199     -0.80782544     -0.99181974
S       5.05677722     -1.26610858     -1.83587846
N       6.37646071     -0.95442168     -0.82279826
O       5.21292749     -0.36233465     -2.95488915
O       5.03464983     -2.70307249     -2.00352678
S       1.97533492     -1.03821931     -1.70188832
C       1.27117225     -0.33507762     -0.22750108
N      -0.00432109     -0.26842984     -0.26151393
S      -0.86293553      0.31835113      0.95316121
O      -0.76567738     -0.57473302      2.08957526
O      -0.60450543      1.73549093      1.10387702
C      -2.53777151      0.19789229      0.34522369
C      -3.44161132     -0.69435396      0.93281226
C      -4.75311772     -0.77327647      0.44903942
C      -5.16846424      0.03873805     -0.61199445
Cl     -6.78739009     -0.14275177     -1.17838416
C      -4.25123102      0.92986574     -1.17180014
N      -4.64240797      1.79248263     -2.26152879
O      -5.43786186      2.70387888     -2.00359935
O      -4.10843985      1.57930825     -3.35782294
C      -2.93175406      1.02256649     -0.71126421
H       1.82263209      1.64423997      1.81524782
H       3.20939956      0.72444209      2.38531251
H       1.60415759      0.05302028      2.60965323
H       6.87627767     -1.82572108     -0.63720438
H       6.97202552     -0.23885213     -1.24501570
H      -3.13757302     -1.33374516      1.76033406
H      -5.44677551     -1.47727588      0.90637431
H      -2.22993874      1.72172496     -1.16302751
