28
CC1(C)OC(=O)c2cc3ccccc3cc21
C      -2.85410807     -1.25015349     -0.92354378
C      -2.35731666     -0.03922294     -0.13825630
C      -3.00263446      0.04060226      1.24269404
O      -2.70932724      1.15863969     -0.87613943
C      -1.61234034      1.88954186     -1.23643182
O      -1.60628953      2.93273969     -1.85760433
C      -0.45068710      1.17302605     -0.72984876
C       0.88380601      1.52081902     -0.84558340
C       1.84095471      0.67063572     -0.27337583
C       3.20947536      0.96686396     -0.35605318
C       4.15757822      0.11696162      0.21536716
C       3.75093100     -1.03892349      0.87622134
C       2.39359618     -1.35200790      0.96970932
C       1.42312835     -0.51245078      0.40291959
C       0.05338610     -0.82395979      0.49461767
C      -0.87305673      0.03330456     -0.07970477
H      -2.42900178     -1.26878733     -1.93424522
H      -2.59368093     -2.19131273     -0.42763473
H      -3.94253908     -1.21265277     -1.04610558
H      -2.75055642     -0.82804689      1.86029761
H      -4.09364587      0.10053724      1.15777061
H      -2.68351036      0.94303983      1.77780748
H       1.16419311      2.43068933     -1.36850530
H       3.55015270      1.86479078     -0.86772575
H       5.21515785      0.35870623      0.14383468
H       4.49177847     -1.69912418      1.32039786
H       2.10141000     -2.26091796      1.49125084
H      -0.27685350     -1.72333759      1.00787001
