28
COC(/C=C\C(OC)OC)OC
C      -1.91818318     -2.37059896     -1.60225964
O      -1.33807625     -1.91888472     -0.38780298
C      -1.70777540     -0.57366295     -0.08868813
C      -1.20110454     -0.30865617      1.30174906
C      -0.00793273      0.17901320      1.68991394
C       1.17179762      0.51433130      0.82748728
O       2.31534773     -0.15635994      1.36120124
C       2.43127929     -1.48468979      0.86699633
O       1.34064722      1.92927625      0.93474182
C       2.33080526      2.40561762      0.03644975
O      -1.15233219      0.32352903     -1.04316571
C      -1.81681555      1.57999520     -1.06409077
H      -1.62924983     -3.41457076     -1.75160761
H      -3.01012544     -2.31765166     -1.55273041
H      -1.54995889     -1.78766647     -2.45166445
H      -2.80336650     -0.49708447     -0.08990205
H      -1.91473967     -0.55438825      2.08487611
H       0.16710622      0.32285991      2.75367537
H       1.03634078      0.24348036     -0.22331488
H       2.56026486     -1.47987373     -0.21978834
H       3.31820709     -1.93929408      1.31680456
H       1.55928255     -2.08572329      1.14118113
H       2.40520936      3.49028090      0.15315413
H       3.30767864      1.96745279      0.26164120
H       2.04911488      2.18874735     -0.99864750
H      -1.32274952      2.21422765     -1.80518697
H      -1.75785292      2.07660216     -0.09126702
H      -2.86281888      1.45369151     -1.35975547
