42
O=C(C(Cl)Cl)N(CCO)Cc1ccc(Oc2ccc([N+](=O)[O-])cc2)cc1
O      -4.44099780      1.16429761     -1.31590649
C      -4.55937411      0.84746834     -0.12487974
C      -5.86409010      0.22573656      0.40242022
Cl     -6.60026398     -0.82137983     -0.83677964
Cl     -6.97407798      1.56427034      0.80980072
N      -3.52111387      1.12286556      0.77727644
C      -3.48410509      0.65720763      2.17292684
C      -2.97486417     -0.78211778      2.33206738
O      -3.85405064     -1.69852358      1.68785015
C      -2.33814339      1.82497343      0.26998624
C      -1.15656403      0.91741125      0.02098597
C       0.00677524      1.02905037      0.79853835
C       1.09560589      0.18465034      0.56988070
C       1.03482924     -0.76445066     -0.45225707
O       2.06366231     -1.64318376     -0.70017592
C       3.31816960     -1.10768471     -0.88918268
C       3.55381620      0.01575531     -1.68923860
C       4.85829257      0.48486838     -1.86676873
C       5.92381381     -0.18732130     -1.25162617
N       7.29605325      0.30335388     -1.43365801
O       7.45816662      1.32064124     -2.12276134
O       8.21083094     -0.32671094     -0.88387472
C       5.69215728     -1.32677999     -0.46826141
C       4.38467647     -1.78793227     -0.29643553
C      -0.11971263     -0.89769854     -1.22037198
C      -1.20654005     -0.05241047     -0.99248159
H      -5.74488574     -0.37883927      1.29520604
H      -4.49188451      0.73619884      2.59055970
H      -2.84997970      1.34032633      2.74911829
H      -1.97544955     -0.90949307      1.91178820
H      -2.93633518     -1.04306492      3.39423755
H      -3.40343397     -2.56286407      1.67962396
H      -2.08116526      2.60386842      0.99849463
H      -2.56624555      2.35938169     -0.65980122
H       0.07238436      1.77171655      1.59073086
H       1.98297888      0.27082224      1.19071570
H       2.73090580      0.52641464     -2.18405761
H       5.02492219      1.36301717     -2.48755515
H       6.51054415     -1.86408660      0.00687142
H       4.19577293     -2.67626205      0.30200028
H      -0.17277216     -1.65003552     -2.00270106
H      -2.09830827     -0.15345676     -1.61012342
