16
CCCC1CO1
C       1.60375084      0.82850105     -0.08054706
C       1.25178216     -0.64051354     -0.26331318
C      -0.08531788     -1.01851611      0.37402017
C      -1.25011104     -0.39493862     -0.32835620
C      -1.92483126      0.84287030      0.20295921
O      -2.47741996     -0.46409453      0.41066037
H       0.89250025      1.47745063     -0.60019013
H       2.59895147      1.03030795     -0.48949044
H       1.61129002      1.10192649      0.97933747
H       2.04218015     -1.24783021      0.19332680
H       1.24106456     -0.87881397     -1.33338562
H      -0.07908958     -0.75241312      1.43812178
H      -0.20010389     -2.10786907      0.32256035
H      -1.29563001     -0.61646180     -1.38619909
H      -1.49817565      1.34773342      1.06031931
H      -2.43084017      1.49266113     -0.49982374
