15
CC(=O)CC(C)=O
C       2.13754215     -0.04953256      0.49724322
C       1.06062962     -0.38661574     -0.49949003
O       1.20082693     -0.16204537     -1.70193546
C      -0.22119236     -0.95707207      0.03579326
C      -1.12388548      0.11290703      0.57921387
C      -1.94151991      0.89770257     -0.41195360
O      -1.15393936      0.36489120      1.78402206
H       2.38201887     -0.93565944      1.08826302
H       3.03797840      0.27560104     -0.03137952
H       1.79729337      0.75762978      1.15008658
H       0.00176381     -1.68552724      0.82237730
H      -0.73945984     -1.50638374     -0.75712942
H      -2.60913059      1.57996649      0.12166719
H      -2.54873604      0.21431319     -1.01075380
H      -1.28018958      1.47982486     -1.05791094
