26
Cc1cc(N)ccc1N.O=S(=O)(O)O
C      -1.71563018     -1.52817571      0.60265255
C      -0.64687463     -0.54343398      0.21623303
C       0.68697306     -0.98574768      0.12153556
C       1.72226580     -0.11426513     -0.22310434
N       3.05198706     -0.55040139     -0.19759575
C       1.42833149      1.23999532     -0.35633828
C       0.10850947      1.69289601     -0.27017415
C      -0.94779624      0.80315674     -0.04695206
N      -2.24025929      1.31832731      0.13630875
O      -0.46650361      0.62417833     -1.51427192
S      -0.21373553      0.38489780     -0.11625723
O      -0.59730191      1.29153230      0.93563685
O       1.35786830      0.09196929      0.01675697
O      -0.82849006     -1.04527764      0.27118701
H      -2.43719686     -1.64262115     -0.21260726
H      -1.29619838     -2.51746510      0.81447176
H      -2.23470427     -1.19257916      1.50628329
H       0.92002053     -2.02662993      0.33314268
H       3.16156800     -1.53762511     -0.40603733
H       3.68222364      0.03069468     -0.74096421
H       2.22385747      1.96149232     -0.51862447
H      -0.08602339      2.75737941     -0.36960342
H      -2.97865103      0.64409872     -0.03259594
H      -2.40240223      2.19090384     -0.35603041
H       1.65656328     -0.27675723     -0.84032341
H      -0.90840048     -1.07054285      1.24727172
