34
CCOC(=O)CCCOc1ccc(Cl)cc1C
C       5.72136964      0.81783395     -0.10208644
C       4.47267711      0.54540862      0.71526319
O       3.68396956     -0.47726031      0.08902712
C       2.80746901     -0.05219594     -0.85927176
O       2.63877976      1.10758718     -1.21011807
C       2.02003003     -1.21293059     -1.40810102
C       0.78662444     -1.50234487     -0.56528527
C      -0.24210401     -0.37222319     -0.61100030
O      -1.38630725     -0.80352945      0.12648142
C      -2.44834317      0.05837426      0.21024695
C      -2.48295986      1.34154612     -0.34634904
C      -3.61844585      2.14453563     -0.20269112
C      -4.72153629      1.66739780      0.49773194
Cl     -6.11743313      2.65783564      0.67271642
C      -4.70111857      0.39258856      1.05818033
C      -3.56575495     -0.42190065      0.91998843
C      -3.55603801     -1.79650512      1.53055862
H       6.35837796      1.55377681      0.39656933
H       6.29389680     -0.10400667     -0.24819959
H       5.46518448      1.19465524     -1.09730526
H       3.88794438      1.45916203      0.87183121
H       4.75467387      0.17072421      1.70467528
H       1.74812657     -0.98672552     -2.44548042
H       2.67189354     -2.09348626     -1.44813813
H       1.06854072     -1.69031498      0.47846808
H       0.31643497     -2.42827901     -0.91941578
H       0.17538761      0.52978333     -0.14989696
H      -0.52082736     -0.17249153     -1.65251196
H      -1.64222420      1.75083849     -0.89739073
H      -3.63220628      3.13959682     -0.63937901
H      -5.56938436      0.03132898      1.60386922
H      -4.49781356     -2.01459787      2.04511947
H      -3.41937991     -2.55545461      0.75342457
H      -2.74950367     -1.87872710      2.26632859
