25
NCCc1c[nH]c2ccc(O)cc12
N      -3.58787081      1.69923467     -0.60110553
C      -2.53903531      0.67902318     -0.55229925
C      -1.66839847      0.82558281      0.70134633
C      -0.58959872     -0.21127977      0.76377410
C      -0.62731155     -1.39276999      1.47872721
N       0.55026733     -2.05926115      1.27229524
C       1.36439781     -1.33857897      0.43059286
C       2.64573041     -1.63112141     -0.05300538
C       3.24284065     -0.69893171     -0.90579328
C       2.57901021      0.47052872     -1.25155399
O       3.22263220      1.33729744     -2.08856978
C       1.30119642      0.75690744     -0.76600280
C       0.67770798     -0.17054566      0.09616381
H      -4.21060794      1.58378629      0.19794708
H      -4.16158289      1.54528234     -1.42990292
H      -3.00321017     -0.31392203     -0.57665548
H      -1.92177133      0.76864077     -1.45335070
H      -2.29616285      0.74898610      1.59876037
H      -1.21307843      1.82385727      0.72619294
H      -1.39169951     -1.81367970      2.11841751
H       0.79408271     -2.95228683      1.67740240
H       3.16309561     -2.54480494      0.21958253
H       4.23685035     -0.88951293     -1.30199214
H       2.64765873      2.10684538     -2.23199051
H       0.78485758      1.67072266     -1.03735880
