22
COc1c(C(=O)O)cccc1C(=O)O
C      -0.60462501      2.45802195     -0.17501157
O      -0.20392143      1.51337957      0.82344818
C      -0.01356250      0.27117254      0.27464558
C       1.26917082     -0.11852264     -0.15778460
C       2.43351742      0.80668775     -0.06949222
O       2.42774312      2.02018059     -0.00944716
O       3.60361218      0.13616586     -0.05425210
C       1.46341902     -1.41221087     -0.67302563
C       0.40887513     -2.32031229     -0.73024047
C      -0.84728098     -1.95085147     -0.25531468
C      -1.06761562     -0.66324450      0.26464270
C      -2.41299586     -0.32307102      0.80662700
O      -2.90863483      0.77623017      0.95522739
O      -3.10310154     -1.42722032      1.15813983
H      -0.74122353      3.42545880      0.31695158
H      -1.55329872      2.17627563     -0.64241076
H       0.15755422      2.57510928     -0.95167136
H       4.27149320      0.84848134      0.03758063
H       2.44389283     -1.72531973     -1.02736425
H       0.57033949     -3.32031219     -1.12655157
H      -1.65434174     -2.68064694     -0.28651650
H      -3.93901568     -1.06545151      1.52181998
