35
CC(CCl)OP(=O)(OC(C)CCl)OC(C)CCl
C      -1.71067592      3.29582589      0.88457022
C      -1.08960685      2.46451111     -0.23161105
C      -0.35264763      3.31372452     -1.27505356
Cl      1.02671868      4.21551251     -0.58834313
O      -0.20862738      1.51904959      0.36530096
P      -0.06386598      0.08134058     -0.33585206
O       0.16348533      0.11885332     -1.81248438
O      -1.39502722     -0.69000974      0.13174788
C      -1.51861073     -2.06472943     -0.23430185
C      -2.91877759     -2.24534029     -0.80926164
C      -1.26759166     -2.92393279      1.00678697
Cl     -1.29387029     -4.66368484      0.64257319
O       1.09376904     -0.62573665      0.52257098
C       2.43904738     -0.23352676      0.26898653
C       3.19649935     -0.27433893      1.59055087
C       3.06484089     -1.12143885     -0.81333469
Cl      3.07628375     -2.85019977     -0.36817882
H      -2.29343195      2.65053650      1.55152264
H      -0.94820847      3.77131992      1.51012011
H      -2.37471767      4.06778354      0.48428747
H      -1.90052581      1.92624943     -0.73780597
H      -1.02952588      4.04338135     -1.72972345
H       0.06012846      2.68726191     -2.06906006
H      -0.78344145     -2.30876245     -1.01074487
H      -3.07825683     -1.55074676     -1.64162011
H      -3.08434178     -3.26177633     -1.17681583
H      -3.68293946     -2.01422859     -0.05882668
H      -2.01867781     -2.72473392      1.77875876
H      -0.29321920     -2.69348791      1.44785297
H       2.44847473      0.80319278     -0.08975516
H       2.75681201      0.44022983      2.29546621
H       4.25147206     -0.01892243      1.45324577
H       3.12700747     -1.25652574      2.06933860
H       4.09935858     -0.82436069     -1.00998917
H       2.50268987     -1.05228991     -1.74768979
