14
Cc1ccccn1
C      -2.21394388     -0.19747944      0.00040943
C      -0.71546871     -0.15391073      0.00195034
C      -0.05189719      1.06987586     -0.02167219
C       1.34013921      1.07892401     -0.01960718
C       2.02844856     -0.12755853      0.00584901
C       1.29113182     -1.29892135      0.02829476
N      -0.05947209     -1.33830808      0.02690868
H      -2.60808313      0.31796810      0.88172433
H      -2.60520204      0.28196708     -0.90224975
H      -2.57398960     -1.23114993      0.02068866
H      -0.60649539      2.00224749     -0.04138093
H       1.88206154      2.01994388     -0.03771999
H       3.11191414     -0.15548199      0.00816226
H       1.78085676     -2.26811637      0.04864258
