34
CCCCCCCC(OC)OC
C       4.53292776     -2.01634816     -1.41682329
C       4.61127944     -0.61277075     -0.83643151
C       3.35578920      0.22440903     -1.08991488
C       2.11349829     -0.31446800     -0.37704330
C       0.91406353      0.61518781     -0.57566804
C      -0.33066651      0.07694182      0.13294010
C      -1.52975646      1.00797893     -0.06728526
C      -2.80359397      0.47528135      0.60187286
O      -3.88413387      1.37097189      0.34115431
C      -4.57500790      1.06747780     -0.86132365
O      -2.56043521      0.39954135      2.00835291
C      -3.64849031     -0.18497196      2.70860696
H       4.30421292     -1.98723890     -2.48680713
H       5.49177618     -2.52911993     -1.28936690
H       3.76829502     -2.61625466     -0.91487985
H       5.46830277     -0.09765184     -1.28661657
H       4.80840359     -0.67363643      0.24017755
H       3.16638616      0.28566556     -2.16854632
H       3.55148213      1.24739461     -0.74516007
H       2.32159612     -0.42100373      0.69440628
H       1.86252398     -1.30974905     -0.76058904
H       1.15382787      1.61288458     -0.18825411
H       0.70858725      0.72480334     -1.64747866
H      -0.57269608     -0.91914683     -0.25699395
H      -0.11836720     -0.03656474      1.20255613
H      -1.29180320      1.99591309      0.34824568
H      -1.70324710      1.16015955     -1.13861208
H      -3.03117265     -0.53270223      0.22971154
H      -5.37435036      1.80209399     -0.99150287
H      -5.02729838      0.07281944     -0.80082871
H      -3.90866858      1.12538380     -1.72617423
H      -3.85342348     -1.19222001      2.33311720
H      -4.54451629      0.43747076      2.62845561
H      -3.37532462     -0.25853147      3.76483159
