25
Cc1cc(Cl)ccc1OC(C)C(=O)O
C      -0.65039449      2.14440838     -1.32879783
C      -1.23787736      0.85565033     -0.82501300
C      -2.61985409      0.63175487     -0.92270914
C      -3.17238626     -0.56295605     -0.46374400
Cl     -4.86759900     -0.82579355     -0.59102067
C      -2.35937210     -1.54855398      0.08869408
C      -0.98247842     -1.33726384      0.19205477
C      -0.42366901     -0.13140041     -0.24470076
O       0.92285090      0.12654790     -0.20847623
C       1.61234950     -0.30318044      0.97599388
C       2.55768190      0.81923007      1.38133985
C       2.43043733     -1.55876379      0.67942385
O       3.01715355     -2.21434081      1.52796399
O       2.45686577     -1.88180276     -0.63750873
H       0.07874267      1.94427206     -2.12052981
H      -1.42066095      2.80215847     -1.74498945
H      -0.16047022      2.68215669     -0.51059034
H      -3.26712997      1.38869242     -1.36001679
H      -2.78858995     -2.48632584      0.43270082
H      -0.37107427     -2.13740436      0.59995343
H       0.92233062     -0.51263975      1.80228046
H       3.12743635      0.55765997      2.27858627
H       3.26946126      1.04253709      0.57826889
H       1.99777036      1.74012548      1.57616364
H       1.92847587     -1.23476814     -1.15532718
