64
CCCCCCCC/C=C\CCCCCCCC(=O)N(C)CC(=O)[O-].[K+]
C      -9.04841483     -0.61672081     -1.98293293
C      -8.57570481      0.82483369     -1.87222678
C      -8.30915772      1.27238989     -0.43280160
C      -7.23648419      0.48049726      0.32219858
C      -5.85764171      0.54314800     -0.33815564
C      -4.79762919     -0.15488731      0.51854352
C      -3.41794287     -0.08485228     -0.14509393
C      -2.33049697     -0.83578023      0.62852099
C      -2.04745232     -0.24526136      1.98141063
C      -1.03689530      0.57725094      2.30904800
C       0.00936559      1.14642286      1.38995179
C       1.42756454      0.66401236      1.71727799
C       1.63334694     -0.82770325      1.43521313
C       3.04201207     -1.32356397      1.77816536
C       4.19374111     -0.65178681      1.02261300
C       4.09903662     -0.81488857     -0.49809494
C       5.30041802     -0.20377854     -1.22557200
C       6.57632750     -1.03228249     -1.11347769
O       6.56353225     -2.15172380     -0.59183196
N       7.72380219     -0.50239954     -1.70070626
C       8.98863947     -1.14028434     -1.39003247
C       7.81991007      0.89862287     -2.18095997
C       8.18725038      1.98620314     -1.13781237
O       7.82053837      1.76988110      0.05293271
O       8.80650459      2.98100752     -1.61845847
K       0.00000000      0.00000000      0.00000000
H      -8.27158789     -1.31987376     -1.66905170
H      -9.93881077     -0.78608714     -1.36851066
H      -9.30514875     -0.84867609     -3.02184743
H      -7.68085964      0.96629521     -2.48884826
H      -9.34809009      1.47763889     -2.29689021
H      -8.02329320      2.33228755     -0.44766920
H      -9.24642392      1.21470647      0.13559182
H      -7.54924501     -0.56387451      0.43518570
H      -7.16560978      0.89052655      1.33730334
H      -5.57143554      1.59038100     -0.49265542
H      -5.89161544      0.06519443     -1.32363088
H      -5.08046893     -1.20444678      0.66918536
H      -4.76445893      0.31879800      1.50709996
H      -3.12198852      0.96470391     -0.27307318
H      -3.48349146     -0.51855263     -1.15099860
H      -1.41961198     -0.86550631      0.02014182
H      -2.62718732     -1.88391854      0.76370720
H      -2.73000809     -0.54789012      2.77455086
H      -0.96064631      0.89894485      3.34760262
H      -0.02062358      2.23933102      1.49485462
H      -0.21719604      0.94417981      0.33757269
H       1.66360598      0.87703925      2.76727672
H       2.12676216      1.24986856      1.11070170
H       0.92527030     -1.41668544      2.03119434
H       1.40458397     -1.04176939      0.38518476
H       3.20899900     -1.19117546      2.85451601
H       3.07927196     -2.40368058      1.59123426
H       4.24049106      0.41269599      1.27967180
H       5.13212283     -1.09079315      1.38202952
H       3.99592969     -1.87534672     -0.75648867
H       3.19655474     -0.30841061     -0.85915842
H       5.47187965      0.80658455     -0.84437994
H       5.05307083     -0.13806101     -2.29163592
H       9.69020185     -0.98271308     -2.21441235
H       8.86526038     -2.21689107     -1.24182907
H       9.39267340     -0.70365834     -0.47135033
H       8.56582936      0.90713057     -2.98548366
H       6.87112423      1.19334777     -2.64009351
