12
O=c1ccc(I)c[nH]1
O      -2.69329518     -0.25014801      0.29105503
C      -1.48046536     -0.14649396      0.15988905
C      -0.81958344      1.18212285      0.10254387
C       0.51238287      1.25815769     -0.04192667
C       1.32793953      0.06015803     -0.14420688
I       3.37096306      0.20421031     -0.36549754
C       0.72073477     -1.13787731     -0.09126741
N      -0.64321942     -1.23125097      0.05649952
H      -1.45783902      2.05188005      0.18183491
H       0.99865240      2.22749197     -0.08421322
H       1.25590013     -2.07967376     -0.16011201
H      -1.09217034     -2.13857689      0.09540134
