42
CN(C)CCC=C1c2ccccc2COc2ccccc21
C       2.98664013     -2.51726854      1.65186896
N       2.50233720     -1.57764196      2.66648526
C       3.64162399     -0.89055766      3.28183823
C       1.56862771     -0.58668556      2.09623656
C       0.22662693     -1.19363055      1.64822030
C      -0.74358383     -0.11375094      1.23104430
C      -1.17221276      0.20349679     -0.01261531
C      -0.64589616     -0.51289641     -1.19404944
C      -0.94937908     -1.85548889     -1.44845473
C      -0.44825662     -2.48313397     -2.58924206
C       0.34219015     -1.76856095     -3.48831467
C       0.62876445     -0.42299215     -3.25347166
C       0.13557187      0.21259294     -2.10642247
C       0.38714733      1.67334483     -1.84073818
O      -0.78281527      2.45884401     -2.06608933
C      -1.80167214      2.40233897     -1.14667709
C      -2.69833685      3.47443364     -1.27590171
C      -3.81549575      3.58441339     -0.44988375
C      -4.05958786      2.60968047      0.50861924
C      -3.18369950      1.53001038      0.63937166
C      -2.03550718      1.41060871     -0.17174539
H       2.17308723     -3.13700824      1.26289335
H       3.46941602     -2.00599329      0.81118108
H       3.71091429     -3.21444916      2.08904780
H       3.30350852     -0.22404065      4.08318897
H       4.32266754     -1.61274650      3.74605931
H       4.20900006     -0.29786594      2.55497837
H       1.35001193      0.16771260      2.86449741
H       2.03585969     -0.05326920      1.25698014
H       0.39085649     -1.91768181      0.84839369
H      -0.22463346     -1.74985096      2.47944974
H      -1.08702395      0.48769886      2.07337901
H      -1.57982313     -2.41418663     -0.76122885
H      -0.68328664     -3.52667403     -2.78135439
H       0.72350863     -2.25658091     -4.38174015
H       1.22589008      0.12846439     -3.97571292
H       0.79817468      1.84994885     -0.83797414
H       1.15064748      2.04384534     -2.53511227
H      -2.51985326      4.23209601     -2.03573511
H      -4.49687829      4.42284440     -0.56525358
H      -4.93705870      2.67822968      1.14618577
H      -3.41807200      0.76235065      1.37442860
