23
CC(C)COC(=O)[C@H](C)Cl
C      -3.26542605      0.29479208     -0.74971727
C      -2.03493152     -0.31749445     -0.08404175
C      -2.16157521     -0.24303882      1.43916144
C      -0.75914964      0.37933621     -0.57312140
O       0.38207987     -0.29645319     -0.02593880
C       1.58574513      0.23037735     -0.39906644
O       1.71850008      1.21885167     -1.11006126
C       2.72308578     -0.56505919      0.21591920
C       4.06080829      0.14098890      0.05977090
Cl      2.79100532     -2.16717571     -0.56888642
H      -4.17791723     -0.21792591     -0.42756174
H      -3.36665539      1.35625886     -0.49904697
H      -3.20136033      0.20839442     -1.83952394
H      -1.97867708     -1.37904051     -0.35700814
H      -3.07568034     -0.74311937      1.77671047
H      -1.31578340     -0.73406070      1.93130787
H      -2.19779966      0.79606878      1.78369146
H      -0.75094340      1.42884002     -0.25409790
H      -0.70778313      0.33455909     -1.66774433
H       2.51415993     -0.71182160      1.28094163
H       4.03380190      1.12742434      0.53571856
H       4.86686523     -0.43452510      0.52722024
H       4.31763083      0.29382282     -0.99462539
