61
COc1ccc(Cl)cc1C(=O)NCCc1ccc(S(=O)(=O)NC(=O)NC2CCCCC2)cc1
C       6.52681516      3.29779255     -0.97572665
O       6.07246676      2.12390823     -0.30881365
C       6.92559653      1.51385696      0.57692015
C       8.24929341      1.93650097      0.77792579
C       9.08087109      1.27903951      1.68877288
C       8.59911100      0.19193415      2.40716075
Cl      9.62609387     -0.61380061      3.52657546
C       7.29232623     -0.24527823      2.22221364
C       6.44094963      0.40522856      1.30810367
C       5.05342200     -0.15906011      1.19747448
O       4.71989003     -1.11486115      1.89243709
N       4.19209083      0.42312073      0.29791834
C       2.83659895     -0.04985983      0.10015992
C       2.78429272     -1.31940277     -0.75296642
C       1.36466119     -1.75701059     -1.02180066
C       0.64352597     -2.44869177     -0.03712462
C      -0.67362663     -2.84573880     -0.27108739
C      -1.27914391     -2.53850993     -1.49066523
S      -2.93697122     -3.07845693     -1.81413605
O      -3.05225152     -3.27877071     -3.24600998
O      -3.28995252     -4.13671558     -0.89506475
N      -3.86083669     -1.73607041     -1.49457235
C      -3.96326141     -1.11655663     -0.26295034
O      -3.34254624     -1.46466412      0.72641080
N      -4.83561406     -0.06581023     -0.29233284
C      -5.21501081      0.64708526      0.92285151
C      -6.27714749     -0.12845508      1.71656525
C      -7.64444279     -0.11297575      1.03374732
C      -8.10795241      1.31051310      0.73973975
C      -7.07548721      2.08491816     -0.07333201
C      -5.69850062      2.06485575      0.59060674
C      -0.56922691     -1.86155237     -2.48653458
C       0.74805648     -1.46595500     -2.24691270
H       5.70435846      3.66605967     -1.59671156
H       7.36818679      3.07243165     -1.63887643
H       6.78125231      4.08603553     -0.25977251
H       8.67331491      2.77776251      0.23776071
H      10.10321866      1.62136389      1.83023363
H       6.92963846     -1.09943412      2.79225535
H       4.53531901      1.19491813     -0.26496190
H       2.38393619     -0.22520118      1.08320273
H       2.28222497      0.76342891     -0.38152821
H       3.30734300     -1.15004478     -1.70308678
H       3.32605814     -2.13850158     -0.26321014
H       1.10760064     -2.68389138      0.91987491
H      -1.22173851     -3.38011889      0.50272608
H      -4.30253462     -1.35751817     -2.31989509
H      -5.45131300     -0.00799416     -1.08752147
H      -4.31335980      0.72728590      1.54315037
H      -6.37649444      0.32496172      2.71119681
H      -5.96279412     -1.16703989      1.87354170
H      -7.59923401     -0.68541181      0.09911355
H      -8.37987588     -0.61208079      1.67548919
H      -8.29429465      1.83500943      1.68490035
H      -9.05968276      1.28376849      0.19791554
H      -7.40749039      3.12266548     -0.19378533
H      -7.00875790      1.65810045     -1.08095400
H      -4.97452323      2.57068609     -0.05952134
H      -5.75083726      2.64666549      1.51962517
H      -1.02799291     -1.64675809     -3.44851474
H       1.29438253     -0.93770584     -3.02526600
