23
CCc1cccc(C)c1N
C       2.86914302     -0.58948002     -0.50110869
C       2.06892741     -0.18031983      0.72683724
C       0.70345280      0.35888345      0.35947909
C       0.57093177      1.74915932      0.19274755
C      -0.66015079      2.31647732     -0.11703117
C      -1.78009019      1.50322679     -0.24726481
C      -1.67751722      0.11143132     -0.09027355
C      -2.92814980     -0.71857957     -0.20748247
C      -0.41649402     -0.47812564      0.15429080
N      -0.32613481     -1.86211901      0.40069976
H       2.36170381     -1.37593244     -1.06911799
H       3.02431597      0.26117792     -1.17349014
H       3.85177492     -0.96813049     -0.20240131
H       1.97347771     -1.02498331      1.41866388
H       2.62810329      0.58286560      1.28312291
H       1.43380276      2.39986371      0.31715997
H      -0.75021672      3.39254321     -0.23702272
H      -2.74208969      1.96307911     -0.46162789
H      -3.07117238     -1.32439602      0.69317661
H      -3.81936696     -0.09209710     -0.32140985
H      -2.86749064     -1.37171771     -1.08387263
H      -1.04301264     -2.40609542     -0.06615004
H       0.59625240     -2.24673118      0.23207546
