31
O=C1CN(O)C(c2ccccc2Cl)=c2cc(Cl)ccc2=N1
O      -2.67333863     -2.44466889     -1.99260394
C      -2.52567247     -2.00237223     -0.85714571
C      -1.57492249     -2.62523459      0.14150997
N      -0.27955145     -1.95953805      0.05328065
O       0.72814463     -2.76881382      0.60200416
C      -0.08458651     -0.57431974     -0.00616269
C       1.36207811     -0.19263807      0.00321974
C       2.06679305     -0.23707857     -1.21386350
C       3.41943105      0.10390459     -1.26414514
C       4.08474238      0.48947734     -0.10208137
C       3.39992065      0.53434533      1.11323350
C       2.04487267      0.19429202      1.17066378
Cl      1.25698020      0.27929909      2.70796428
C      -1.01319512      0.42126744     -0.08945276
C      -0.63827182      1.84494331     -0.15140302
C      -1.51242245      2.82839305      0.09736844
Cl     -1.02126571      4.47995402      0.04008515
C      -2.87629565      2.54108107      0.44399536
C      -3.36640580      1.29878208      0.37360567
C      -2.51950942      0.14431254     -0.06732368
N      -3.20005004     -0.90942201     -0.39098373
H      -1.48015773     -3.69035677     -0.09967798
H      -1.98570909     -2.54964280      1.15471697
H       1.35094792     -2.88884637     -0.14044814
H       1.55874034     -0.53846423     -2.12854106
H       3.95409796      0.06807014     -2.21075181
H       5.13886146      0.75460382     -0.14093221
H       3.92865033      0.83464019      2.01470258
H       0.38530311      2.11387804     -0.39270234
H      -3.51970641      3.36272904      0.74421449
H      -4.40850308      1.08742303      0.58765432
