30
Cc1ccccc1N(O)C(=O)c1ccc(Cl)cc1Cl
C       2.69118072     -1.03376524      2.05048585
C       2.33250745     -0.11810505      0.90933938
C       3.11724436      1.03578978      0.72372073
C       2.82704391      1.94583982     -0.28960213
C       1.75706985      1.70859001     -1.14181562
C       0.97774880      0.56013288     -0.98121065
C       1.24601922     -0.36763260      0.03983342
N       0.45380915     -1.53813001      0.18105879
O       1.21685874     -2.73130987      0.34189169
C      -0.84222356     -1.79227137     -0.25500154
O      -1.22229315     -2.93421918     -0.52882891
C      -1.82629250     -0.69264283     -0.35243626
C      -2.52588210     -0.57307254     -1.56475857
C      -3.46788547      0.44279503     -1.73343152
C      -3.72482064      1.32560581     -0.68640238
Cl     -4.88375060      2.57916303     -0.89522791
C      -3.06206394      1.19282260      0.53303232
C      -2.11867653      0.17479887      0.70838364
Cl     -1.41487131      0.01312075      2.27693515
H       1.79464581     -1.39561138      2.56386931
H       3.28721793     -0.50805478      2.80491885
H       3.28016224     -1.88116220      1.68701892
H       3.96111821      1.23425760      1.38196718
H       3.44164653      2.83332473     -0.41633673
H       1.53868047      2.40650543     -1.94616278
H       0.19633655      0.38676351     -1.71303737
H       0.59434754     -3.41137498      0.00766166
H      -2.33390123     -1.27043669     -2.37903522
H      -3.99990193      0.53589757     -2.67752255
H      -3.29107449      1.87238132      1.35069325
