51
CS(=O)(=O)c1ccc(N2CCOCC2)c(C(=O)N2Cc3cc(C(F)(F)F)cnc3C2)c1
C      -4.20848438      3.98542085     -1.93739360
S      -3.01871624      4.05658977     -0.62385889
O      -3.66694316      4.61638466      0.54652956
O      -1.79283768      4.63429438     -1.14045516
C      -2.67855282      2.34909161     -0.27856603
C      -3.30460135      1.71344342      0.78766473
C      -3.00904797      0.37227425      1.05415882
C      -2.08119879     -0.36987952      0.28912855
N      -1.91899970     -1.71288160      0.63881747
C      -1.53388111     -2.71580402     -0.37628290
C      -1.81510777     -4.12757979      0.16627966
O      -1.12237862     -4.35839576      1.40579698
C      -1.54663189     -3.40690682      2.39448709
C      -1.27037228     -1.96185815      1.94605890
C      -1.44561581      0.32436663     -0.76329550
C      -0.39635655     -0.26384273     -1.61704326
O      -0.72356733     -0.79603536     -2.67300302
N       0.90746011     -0.14006480     -1.19544869
C       1.38401713      0.54751265      0.00575321
C       2.86207007      0.35541007     -0.04268037
C       3.84132319      0.77065342      0.83947599
C       5.17306854      0.44578853      0.54361548
C       6.31089137      0.86632337      1.42284609
F       6.91968836      1.99866829      0.97755552
F       5.92795148      1.12700130      2.70413175
F       7.28994413     -0.07544227      1.51341787
C       5.43660821     -0.26502365     -0.63108127
N       4.48897236     -0.67847408     -1.50803542
C       3.22605004     -0.35305423     -1.18260834
C       2.00319384     -0.69269343     -1.99174525
C      -1.74233596      1.66856952     -1.05191007
H      -3.76336668      3.47978749     -2.79630653
H      -5.09351683      3.45079689     -1.58725962
H      -4.47588202      5.00925739     -2.20758616
H      -4.02539336      2.23756794      1.41213475
H      -3.54258978     -0.11920669      1.86731192
H      -2.10725590     -2.57683079     -1.29886158
H      -0.46179239     -2.64104662     -0.58697093
H      -1.46830575     -4.87763208     -0.55142203
H      -2.88898117     -4.28399588      0.32394491
H      -0.99712242     -3.62025834      3.31671156
H      -2.61362754     -3.55743621      2.59805371
H      -0.18871615     -1.81589151      1.83896354
H      -1.63079528     -1.27870596      2.72295790
H       0.94310773      0.08515379      0.89202770
H       1.11455770      1.60602059     -0.05352806
H       3.58701087      1.33191232      1.73477158
H       6.45486515     -0.53232260     -0.90994054
H       2.02042497     -0.20841314     -2.97249277
H       1.87008153     -1.77354746     -2.09456168
H      -1.22831207      2.17093436     -1.87025758
