25
CON(C)C(=O)Nc1ccc(Cl)c(Cl)c1
C      -3.04942526      1.66363767      0.03544551
O      -2.58277811      0.42424707     -0.50179513
N      -2.21078223     -0.41561347      0.58816965
C      -3.20409049     -1.44997496      0.79953003
C      -0.86112192     -0.80240656      0.58908667
O      -0.45864320     -1.76401469      1.23747853
N      -0.07876268      0.03005760     -0.18703538
C       1.31032144     -0.00132861     -0.38706051
C       2.17389624     -0.85807633      0.29720906
C       3.55066784     -0.82689795      0.04723987
C       4.07765875      0.06445272     -0.88833981
Cl      5.78503685      0.04998825     -1.14611891
C       3.22027517      0.92837363     -1.57450054
Cl      3.79236036      2.06399362     -2.74574345
C       1.84328416      0.89417718     -1.32197529
H      -3.30465403      2.32160302     -0.79943790
H      -2.26624847      2.14214103      0.63196867
H      -3.94546677      1.50483637      0.64311933
H      -4.19216926     -0.99323789      0.89930738
H      -2.96752378     -2.01185180      1.70754330
H      -3.19763655     -2.13403578     -0.05475542
H      -0.63503444      0.66624161     -0.74373235
H       1.80820954     -1.56360058      1.03813273
H       4.20371206     -1.50507121      0.59195618
H       1.18891480      1.57236008     -1.86415497
