29
CCCCSS(=O)CCCC
C      -4.34173548      0.80912877     -1.02552719
C      -4.25547061     -0.65993746     -0.64167064
C      -3.80334526     -0.89058815      0.80468893
C      -2.43009700     -0.32855034      1.18044499
S      -1.08134070     -1.10966284      0.24084868
S       0.59108391     -0.28886236      1.13475032
O       0.15803165      1.14407578      1.22133757
C       1.80900017     -0.42732131     -0.21332889
C       3.13662626      0.19472856      0.20503882
C       4.17608854      0.07662948     -0.90917063
C       5.50369190      0.69478361     -0.50069816
H      -4.97654854      1.36191916     -0.32594047
H      -4.77310241      0.91059806     -2.02662569
H      -3.35361099      1.27808141     -1.04291208
H      -5.24867751     -1.10906305     -0.76454558
H      -3.59473699     -1.18171357     -1.34228433
H      -4.54746675     -0.44001775      1.47425203
H      -3.82626037     -1.96820494      1.01227245
H      -2.40792284      0.75441850      1.02730117
H      -2.25639782     -0.51253784      2.24641150
H       1.40664148      0.07776822     -1.09766764
H       1.93782143     -1.49040880     -0.44142464
H       2.99072860      1.25208949      0.45957223
H       3.51114702     -0.29904037      1.11065812
H       4.33334130     -0.97852676     -1.16148755
H       3.81033898      0.57586004     -1.81401937
H       6.23194472      0.59909290     -1.31211475
H       5.91300671      0.19619723      0.38372441
H       5.38722059      1.75906431     -0.27249603
