21
Nc1nc(=O)n(-c2ccccc2)[nH]1
N       3.77601868      1.02842361     -1.12327226
C       2.80930205      0.50500119     -0.34142238
N       2.98570848     -0.04693174      0.81585489
C       1.70768269     -0.35905334      1.25155560
O       1.46496421     -0.90322050      2.31821682
N       0.80182035      0.05811355      0.27477106
C      -0.60188982     -0.05874018      0.21485447
C      -1.34097219     -0.54948878      1.29893045
C      -2.73492129     -0.65305600      1.23280104
C      -3.41214834     -0.26929715      0.07956255
C      -2.69622173      0.21616452     -1.00980353
C      -1.30284156      0.32021004     -0.94263263
N       1.52827138      0.60367338     -0.80200085
H       4.70045128      0.77304107     -0.78493212
H       3.67546887      0.79805285     -2.10558592
H      -0.85774861     -0.85830701      2.22222194
H      -3.28762504     -1.03608852      2.08742731
H      -4.49471529     -0.35297727      0.02981898
H      -3.21994987      0.50941191     -1.91618663
H      -0.77979681      0.68610757     -1.82145472
H       1.27914257      1.57377671     -0.97872409
