9
C=CCCl
C      -1.36194593     -0.18546825      0.40359900
C      -0.32991443      0.35268387     -0.26028988
C       1.06955900     -0.17278946     -0.22500939
Cl      2.15721821      1.07159997      0.42338474
H      -1.24442575     -1.05993943      1.03639901
H      -2.35443891      0.24990071      0.33197835
H      -0.50408629      1.23067947     -0.87906547
H       1.16329145     -1.06274697      0.40440026
H       1.40474266     -0.42391991     -1.23539662
