52
C#CC1(O)CCC2C3CCC4=Cc5oncc5CC4(C)C3CCC21C
C      -5.10854266     -1.55057737     -2.25293329
C      -4.51982591     -0.92534838     -1.41285086
C      -3.81119329     -0.15772608     -0.37666989
O      -4.65936857     -0.06069723      0.77118446
C      -3.48892781      1.27283591     -0.82978909
C      -2.21361494      1.67557265     -0.07747266
C      -1.79590812      0.45800608      0.76916122
C      -0.28086533      0.32317744      1.04267904
C       0.28150515      1.60597970      1.67359391
C       1.74729669      1.44501570      2.04888050
C       2.58146506      1.03163142      0.86126434
C       3.72782147      1.69118262      0.58685190
C       4.52810127      1.22450204     -0.47767324
O       5.79365207      1.62850439     -0.79902885
N       6.25138546      0.91299575     -1.89760575
C       5.25115500      0.09361535     -2.22925610
C       4.15109676      0.24985584     -1.37487131
C       2.80884254     -0.37506525     -1.34437704
C       2.08418559     -0.20658594      0.05552445
C       2.42348157     -1.45578457      0.90705125
C       0.53373618     -0.07356134     -0.21422132
C      -0.08063227     -1.33035617     -0.86259155
C      -1.56143784     -1.14245472     -1.19444267
C      -2.42760712     -0.74960603      0.03167459
C      -2.57548138     -1.95915223      0.97631161
H      -5.63011661     -2.11011461     -2.99514026
H      -5.53815352      0.20646605      0.45160051
H      -4.30182131      1.97292715     -0.60432143
H      -3.30021127      1.32932477     -1.90902774
H      -1.44531462      1.96737962     -0.80050199
H      -2.39767214      2.54560057      0.56281235
H      -2.28832991      0.56964434      1.74716082
H      -0.17014423     -0.48026263      1.78332925
H      -0.29166013      1.85935246      2.57371921
H       0.17959857      2.45227329      0.98301039
H       1.84646470      0.69184212      2.83970516
H       2.10705992      2.38912060      2.47611277
H       4.07985550      2.52904761      1.17879764
H       5.37385471     -0.56490402     -3.07725753
H       2.21753483      0.11201722     -2.13138851
H       2.88141186     -1.43377620     -1.62142108
H       1.87582543     -1.47598324      1.85434323
H       2.19171761     -2.38546830      0.37691525
H       3.49270102     -1.48954356      1.14951367
H       0.41870870      0.74608533     -0.93859150
H       0.03336278     -2.19878146     -0.20620627
H       0.44513446     -1.57472972     -1.79220201
H      -1.63441374     -0.38308139     -1.98263836
H      -1.93907152     -2.07292621     -1.63698650
H      -3.09936132     -2.78211110      0.47800509
H      -1.60666592     -2.34042571      1.31213206
H      -3.14061346     -1.70493256      1.87947299
