24
CC=CC(=O)Nc1ccc(O)cc1
C       4.97796518     -0.08384148     -1.08095298
C       3.51804549      0.06773468     -1.35290724
C       2.56005399     -0.09152846     -0.42615867
C       1.11988733      0.07916295     -0.78485023
O       0.78430844      0.36653728     -1.92610487
N       0.29547597     -0.12587044      0.30304698
C      -1.11346715     -0.04868892      0.33576892
C      -1.73857557     -0.29893175      1.56551943
C      -3.12969658     -0.24249173      1.68225812
C      -3.89997356      0.06435833      0.56962874
O      -5.25297782      0.10965177      0.72417436
C      -3.30051429      0.31571659     -0.65828994
C      -1.90652502      0.25860671     -0.77290511
H       5.39487437     -0.87368051     -1.71317242
H       5.17967732     -0.34056657     -0.03619734
H       5.49872984      0.85102097     -1.30941737
H       3.24332437      0.32371774     -2.37571880
H       2.81330970     -0.34581553      0.59493313
H       0.73595214     -0.35822802      1.18230188
H      -1.15626663     -0.54110246      2.45020750
H      -3.60875653     -0.43724902      2.63742516
H      -5.65323911      0.33421022     -0.13211071
H      -3.89046742      0.55693709     -1.53695540
H      -1.47114445      0.46034057     -1.74664198
