29
CC(C)=NNC(=O)Nc1ccc([N+](=O)[O-])cc1
C      -4.62949698      0.89032619      0.78167677
C      -3.68180691      0.29011209     -0.22754168
C      -4.28729553     -0.26625254     -1.49234413
N      -2.39047732      0.21687650     -0.08978373
N      -1.83927812      0.72043711      1.05567268
C      -0.47310748      0.68493381      1.28670310
O      -0.00970184      1.14480600      2.32392179
N       0.21029512      0.09976947      0.24939809
C       1.58553789     -0.12040872      0.10719182
C       2.01518541     -0.74689307     -1.07039801
C       3.37251807     -1.00312305     -1.28983789
C       4.30887086     -0.62800204     -0.31985605
N       5.73536221     -0.89332146     -0.54238711
O       6.53280276     -0.54599517      0.34033156
O       6.05922319     -1.45001059     -1.60164775
C       3.89287207     -0.00184097      0.86010854
C       2.53123626      0.24909255      1.06781761
H      -4.38203207      1.94343547      0.94005209
H      -5.65986490      0.82556383      0.42145345
H      -4.55657442      0.34526470      1.72663719
H      -4.81852255      0.53094398     -2.01930707
H      -3.51216028     -0.67332884     -2.14740218
H      -4.99246043     -1.06138950     -1.23560582
H      -2.40164281      1.14097772      1.78535497
H      -0.42593861     -0.19225926     -0.48513561
H       1.29639077     -1.04293673     -1.83141730
H       3.67741614     -1.49087811     -2.21323742
H       4.60532707      0.29740271      1.62622942
H       2.23732244      0.73669790      1.99335266
