29
CNc1nc(NC(C)C)nc(OC)n1
C      -2.99436092     -3.02506811     -0.52475269
N      -3.06005379     -1.70182504     -1.10437901
C      -2.12962413     -0.80277319     -0.59283014
N      -0.91273846     -1.21629351     -0.25815201
C      -0.08616389     -0.28988990      0.20557730
N       1.17818963     -0.74213157      0.55092826
C       2.29426629      0.17825420      0.37784966
C       3.49605331     -0.38753496      1.13562775
C       2.63938772      0.34471122     -1.10210157
N      -0.40429451      0.98588672      0.35161070
C      -1.64578634      1.28970588     -0.00524291
O      -2.09119321      2.59112157      0.10797908
C      -1.11617183      3.47234562      0.64906153
N      -2.54877834      0.44527436     -0.48180451
H      -2.05733408     -3.53212145     -0.77940980
H      -3.81171495     -3.63286909     -0.92590712
H      -3.10673363     -2.99425466      0.56476000
H      -3.96221668     -1.24259874     -1.02861751
H       1.29103909     -1.65743617      0.12763694
H       2.06642520      1.15917328      0.81332016
H       4.36046071      0.27934395      1.05098785
H       3.26283832     -0.50532438      2.19971264
H       3.78532643     -1.37183064      0.75016789
H       3.50917110      0.99833484     -1.22686451
H       1.80715365      0.79005140     -1.65739252
H       2.86893156     -0.61978233     -1.56893720
H      -1.56294788      4.46975400      0.70608384
H      -0.83274914      3.17764367      1.66559982
H      -0.23638123      3.54013304     -0.00051191
