22
O=C1NC(=O)c2cccc3cccc1c23
O      -3.21882572      1.58545475     -0.34748013
C      -2.00535831      1.43644567     -0.27139782
N      -1.13529363      2.49743895     -0.35977482
C       0.23713753      2.45331760     -0.28895153
O       0.92351082      3.46381969     -0.37990544
C       0.84099764      1.11570609     -0.09645804
C       2.23163897      0.98809474     -0.01454864
C       2.79954692     -0.27000323      0.16649817
C       1.98111837     -1.39709779      0.26542668
C       0.58312812     -1.28277567      0.18479321
C      -0.25084297     -2.40919290      0.28289770
C      -1.63911387     -2.28273821      0.20124299
C      -2.21365805     -1.02764954      0.02024691
C      -1.39454114      0.10198874     -0.07895962
C       0.00302501     -0.00665449      0.00095862
H      -1.54969732      3.40905127     -0.49109904
H       2.87082280      1.86564726     -0.09148059
H       3.88026558     -0.37454310      0.23080846
H       2.44620531     -2.37134811      0.40683458
H       0.17741701     -3.40014287      0.42459232
H      -2.27163282     -3.16415539      0.27896559
H      -3.29585024     -0.93066345     -0.04320955
