23
Clc1ccc(Oc2c(Cl)ccc(Cl)c2Cl)cc1
Cl     -5.20114747      0.04552117     -1.23262784
C      -3.64657934     -0.06806121     -0.50496087
C      -3.51770510      0.05451940      0.87645833
C      -2.25398398     -0.03881602      1.46322711
C      -1.12033095     -0.24454867      0.67082247
O       0.07075106     -0.33131620      1.36194189
C       1.23452552     -0.07328905      0.67172324
C       1.64402339      1.24716349      0.43630514
Cl      0.71471053      2.60125080      0.96840822
C       2.84398367      1.49872777     -0.23052123
C       3.64724061      0.43601251     -0.64633847
C       3.25948354     -0.88276802     -0.38752166
Cl      4.31872822     -2.13934471     -0.92396827
C       2.05565216     -1.14493359      0.28192781
Cl      1.56031188     -2.77116563      0.62705438
C      -1.25787481     -0.38014043     -0.71415392
C      -2.52363180     -0.28741151     -1.30140637
H      -4.39151851      0.22081704      1.50045571
H      -2.15199088      0.05544805      2.54174063
H       3.16430801      2.52086221     -0.42192481
H       4.58205646      0.64322061     -1.16372776
H      -0.40431927     -0.56930525     -1.35709361
H      -2.62669295     -0.39244277     -2.37831694
