22
COc1ccc(NC(N)=O)cc1
C       4.10406181      0.09798961      0.17147535
O       3.20120799     -0.80647496     -0.45269510
C       1.86758658     -0.54432195     -0.30635257
C       1.31147080      0.53411530      0.37886590
C      -0.08071046      0.68568214      0.45234947
C      -0.93099012     -0.23944878     -0.15441606
N      -2.33530144     -0.14681922     -0.12878968
C      -3.10131151      0.74340014      0.57389007
N      -4.43067884      0.58917927      0.30038800
O      -2.74361299      1.59716309      1.37094295
C      -0.36926796     -1.31764248     -0.84522695
C       1.01908783     -1.46730007     -0.91828690
H       5.12084277     -0.25310123     -0.02939647
H       4.00985932      1.10388069     -0.25087323
H       3.96440284      0.10947528      1.25753060
H       1.92629342      1.28105499      0.86989677
H      -0.46980920      1.54385873      0.99241496
H      -2.84956172     -0.89434773     -0.56998267
H      -4.67038749      0.44566677     -0.66992886
H      -4.98866857      1.30706146      0.74860197
H      -0.99709893     -2.05730536     -1.33395322
H       1.44258586     -2.31176567     -1.45645433
