44
O=C(O)CCCCCCCCCCCCC(=O)O
O      -6.33928870      1.78949734      0.91210108
C      -6.72572098      0.94270141      0.12570134
O      -7.94622026      1.03935730     -0.43804140
C      -6.00027773     -0.29972766     -0.31896540
C      -4.52216703     -0.30008784      0.07301240
C      -3.69236022      0.66328905     -0.78271759
C      -2.22846862      0.75990262     -0.34208755
C      -1.44686371     -0.54183543     -0.53279678
C       0.03341547     -0.35425944     -0.18855435
C       0.81419995     -1.65773449     -0.37173136
C       2.32169191     -1.49815816     -0.15033812
C       2.68665196     -1.14088790      1.29261839
C       4.19441359     -1.18291226      1.56387314
C       5.04661506     -0.23870339      0.71175072
C       4.66994112      1.22953664      0.87367796
C       5.64621178      2.11042574      0.14922967
O       6.55187009      2.75240987      0.65340851
O       5.44356045      2.13015688     -1.18140841
H      -8.31465410      1.86683793     -0.06333304
H      -6.49741975     -1.15227491      0.15727302
H      -6.09808400     -0.40154083     -1.40541493
H      -4.41157098     -0.04578459      1.13392803
H      -4.14028083     -1.31914430     -0.05553305
H      -3.73900053      0.35578800     -1.83455816
H      -4.12666245      1.66857684     -0.73054742
H      -1.74830527      1.55412297     -0.92728583
H      -2.18101277      1.07028257      0.70883370
H      -1.54245613     -0.87895998     -1.57192143
H      -1.86468751     -1.32849954      0.10521152
H       0.46371967      0.42480735     -0.82931362
H       0.11815301     -0.00761293      0.84741676
H       0.65661604     -2.02925386     -1.39195883
H       0.42123362     -2.42432507      0.30712736
H       2.80902441     -2.44334058     -0.41950762
H       2.70494741     -0.73553899     -0.83781812
H       2.19989718     -1.85135912      1.97239779
H       2.29676763     -0.15048710      1.54989112
H       4.36192897     -0.95297292      2.62355506
H       4.55453524     -2.20803294      1.41155920
H       4.98748272     -0.52671336     -0.34451418
H       6.09815019     -0.37446233      0.99655459
H       3.66526398      1.44080948      0.49217990
H       4.67616040      1.51808183      1.93102988
H       6.14304974      2.72802610     -1.51905577
