26
C=C/C=C/CC/C=C/CC
C       2.16137028      4.74916989     -2.35351892
C       2.18012890      3.78757013     -1.42341597
C       1.10553451      2.83997789     -1.25166793
C       1.12820378      1.87613119     -0.31892502
C       0.01758599      0.88188830     -0.11802433
C       0.49445136     -0.55081323     -0.37641764
C      -0.61614635     -1.54469819     -0.17500056
C      -0.59811576     -2.50990656      0.75757688
C      -1.70190594     -3.50939047      0.94983297
C      -2.32859074     -3.38479126      2.32978338
H       2.99271031      5.44089085     -2.44667182
H       1.32975665      4.87437819     -3.03951355
H       3.04031863      3.70874214     -0.76186256
H       0.24946195      2.92759261     -1.91788321
H       1.97903544      1.78696296      0.35365487
H      -0.34520139      0.97460940      0.91334905
H      -0.83240183      1.11505243     -0.77200254
H       1.34412664     -0.78428293      0.27781858
H       0.85716525     -0.64378924     -1.40775632
H      -1.46914238     -1.45873947     -0.84562813
H       0.25938413     -2.60240507      1.42159199
H      -2.48043670     -3.38713437      0.18780849
H      -1.28931893     -4.51716307      0.82627505
H      -3.12121437     -4.12965841      2.45356040
H      -1.58666928     -3.54713387      3.11903287
H      -2.77008995     -2.39305979      2.47548341
