37
NCCCCCCCCCCC(=O)O
N      -5.73163771      1.81677089     -0.32248048
C      -4.39801678      1.60208788      0.23031892
C      -4.02519765      0.12233813      0.14499923
C      -2.68087799     -0.20527387      0.80512842
C      -1.48201906      0.40437336      0.07354931
C      -0.13629225      0.08026607      0.73293908
C       0.26079388     -1.39331112      0.61376651
C       1.60447983     -1.71839230      1.27627106
C       2.82149643     -0.96175674      0.73408514
C       3.07070939     -1.19930750     -0.75894295
C       4.35546090     -0.52939052     -1.24750538
C       4.23575906      0.96906213     -1.33848547
O       3.21826225      1.63853986     -1.29860174
O       5.43567935      1.55832681     -1.51058079
H      -5.74408446      1.53800493     -1.30282622
H      -5.94611519      2.81298675     -0.30657895
H      -3.68402757      2.21664554     -0.32628066
H      -4.38685820      1.93454365      1.27362956
H      -4.80085795     -0.47305769      0.64422763
H      -4.00603599     -0.20155923     -0.90330892
H      -2.58189819     -1.29608206      0.82717481
H      -2.69129311      0.13347677      1.84809355
H      -1.58390478      1.49519795      0.05352679
H      -1.47141840      0.06758074     -0.97003162
H       0.62415369      0.70209324      0.24718760
H      -0.16176224      0.37548215      1.78871279
H       0.28075679     -1.68921444     -0.44115647
H      -0.49928363     -2.01974312      1.09390580
H       1.78589280     -2.79599255      1.17684970
H       1.52530444     -1.51896501      2.35234514
H       3.70240338     -1.29201760      1.29919739
H       2.71441413      0.10889403      0.93831534
H       2.22125748     -0.83824781     -1.34924442
H       3.15186579     -2.27841933     -0.93742998
H       5.18608677     -0.78203030     -0.57931741
H       4.59262624     -0.89754461     -2.25193495
H       5.22417855      2.51363490     -1.56920293
