30
CNCC(O)C(O)C(O)C(O)CO
C      -2.68721161      1.36164108     -0.37111133
N      -2.52176869      0.15274508     -1.17606377
C      -1.10204521     -0.06376226     -1.53731351
C      -0.53949868     -1.31770294     -0.83334123
O      -1.53502183     -2.36810694     -0.99591735
C      -0.28325012     -1.20270690      0.68460355
O      -0.26576826     -2.55617509      1.22032106
C       1.05330993     -0.58507665      1.14064118
O       2.12785071     -1.46154542      0.73729483
C       1.37040719      0.81481661      0.61653215
O       1.81207449      0.72334266     -0.75180975
C       2.50611612      1.47493623      1.40826932
O       2.73911096      2.78444862      0.88607713
H      -3.74468255      1.48457390     -0.11759000
H      -2.36763116      2.25319580     -0.92064681
H      -2.12890205      1.30115056      0.56720664
H      -3.04848473      0.29626038     -2.04249781
H      -0.49673262      0.83195314     -1.39566583
H      -1.08869829     -0.26932771     -2.61571608
H       0.36029747     -1.67356642     -1.34592113
H      -2.39021988     -1.88323906     -0.97354673
H      -1.11921805     -0.69689734      1.17666343
H      -0.89233759     -3.05025436      0.64499997
H       1.05805356     -0.57886155      2.23798892
H       1.80929497     -2.35653112      0.98910621
H       0.48988058      1.46461674      0.64530349
H       2.42830628     -0.04236537     -0.75856841
H       3.44241509      0.91551667      1.31396904
H       2.25216818      1.57091205      2.46784603
H       2.76218578      2.67600962     -0.08532814
