52
COCCNCc1ccc(Nc2ncc3cc(-c4ccncc4)ccc3n2)cc1
C       9.18759376     -1.72268108      0.14786841
O       8.28021868     -0.75015415     -0.35281557
C       8.38464747      0.48306051      0.36497442
C       7.34555368      1.48659878     -0.16039241
N       5.99342244      1.33402150      0.39980042
C       5.39375748      0.04067209      0.05997493
C       3.92563216      0.02558991      0.42161500
C       3.52200904      0.04429415      1.76027570
C       2.16293438      0.03708259      2.09261963
C       1.16603870      0.01269638      1.10421788
N      -0.17309689      0.00812226      1.50718408
C      -1.39098984     -0.00888962      0.83475579
N      -1.46625576     -0.01938449     -0.50251803
C      -2.69554224     -0.03452837     -1.04921277
C      -3.86650223     -0.03817296     -0.31378187
C      -5.15636974     -0.05249445     -0.88733670
C      -6.30072731     -0.05913693     -0.07845997
C      -7.64882910     -0.07516502     -0.66493711
C      -8.58159142     -1.05643256     -0.30893382
C      -9.83972501     -1.03238026     -0.89078359
N     -10.23257296     -0.10792079     -1.79053975
C      -9.32653394      0.83373300     -2.12320910
C      -8.04442441      0.88998804     -1.59861375
C      -6.11267337     -0.05066445      1.30962869
C      -4.82425701     -0.03435849      1.86275664
C      -3.68702931     -0.02804744      1.06748799
N      -2.47261445     -0.01302348      1.63446715
C       1.58139613     -0.00101425     -0.22995995
C       2.94076777      0.00693605     -0.57081115
H       8.96336018     -1.95235379      1.19397448
H      10.21915034     -1.37071339      0.05116452
H       9.07299555     -2.63599165     -0.44205049
H       8.25006421      0.31277589      1.43988083
H       9.38814520      0.89321461      0.20158991
H       7.29835849      1.44703103     -1.25530328
H       7.68320759      2.49230295      0.11480167
H       5.39775890      2.06458160      0.00971592
H       5.50556710     -0.16870550     -1.01107236
H       5.88152784     -0.77297679      0.60885471
H       4.26864951      0.07316889      2.55100863
H       1.89010333      0.05426262      3.14489403
H      -0.35000605      0.01276605      2.50054516
H      -2.70662856     -0.04366383     -2.13540587
H      -5.26060612     -0.07165556     -1.97100509
H      -8.33475529     -1.83884025      0.40162566
H     -10.58569427     -1.78141580     -0.64060696
H      -9.66781288      1.56976647     -2.84563182
H      -7.37401434      1.68555288     -1.90749346
H      -6.96938978     -0.04331075      1.98144495
H      -4.70974761     -0.02368351      2.94454980
H       0.85750373     -0.01782933     -1.03860000
H       3.21802628     -0.00262932     -1.62235316
