19
Cn1c(=O)c2n[se]nc2n(C)c1=O
C       2.74322940     -0.30229807     -0.00239180
N       1.33365993      0.03909236      0.00892366
C       0.89899784      1.29185285      0.09042517
O       1.76866289      2.19318134      0.15900838
C      -0.48996026      1.60397837      0.09995199
N      -0.92083875      2.85724212      0.18175374
Se     -2.45999446      3.20116843      0.19240278
N      -2.71104301      0.78402294      0.02559884
C      -1.42217259      0.67870403      0.02919298
N      -0.89293548     -0.63984659     -0.05593499
C      -1.86969589     -1.70886587     -0.13542297
C       0.38039101     -0.90478021     -0.06324161
O       0.77705809     -2.10493986     -0.14148003
H       3.20810774     -0.18255514     -0.99387074
H       2.85712618     -1.34361627      0.35122208
H       3.23431027      0.39813570      0.72550922
H      -2.58466569     -1.52297223      0.72178744
H      -1.41046750     -2.68276947     -0.08937765
H      -2.43976973     -1.65473443     -1.10405650
