58
CN(C)[C@@H]1C(O)=C(C(N)=O)C(=O)[C@@]2(O)C(O)=C3C(=O)c4c(O)cccc4[C@@](C)(O)[C@H]3C[C@@H]12.Cl
C      -4.25964006     -1.04865530     -1.10281441
N      -3.42658072     -1.84587467     -0.26247425
C      -3.02181201     -3.08553055     -0.81886047
C      -2.46769774     -1.14131784      0.51986069
C      -3.21959488     -0.24453439      1.44067316
O      -4.31335178     -0.82553395      2.08630819
C      -2.95107987      1.00257496      1.68839375
C      -3.77455930      1.75929582      2.61387782
N      -3.48711325      3.11626450      2.88709918
O      -4.74886437      1.22261431      3.18234337
C      -1.79984078      1.61528061      1.00804466
O      -1.23237547      2.59528953      1.53749300
C      -1.40063657      1.00027026     -0.28310729
O      -2.34608591      1.40906477     -1.25305088
C      -0.12071701      1.58173936     -0.70027070
O      -0.10934789      2.94523849     -1.01884581
C       1.02629479      0.90045209     -0.79533093
C       2.23379484      1.61289838     -1.22694254
O       2.10863034      2.71517295     -1.83904455
C       3.55244845      1.05655026     -0.95287738
C       4.70704935      1.69326917     -1.34075805
O       4.72805797      2.88019894     -2.00447896
C       5.96119751      1.13141264     -1.06214723
C       5.99782994     -0.06253428     -0.39644831
C       4.83246635     -0.68863728     -0.01395873
C       3.59132194     -0.14199854     -0.28460343
C       2.42781209     -0.90358720      0.17341157
C       2.73283277     -2.37931127      0.03065967
O       2.28581748     -0.67121546      1.55793452
C       1.13455799     -0.52553775     -0.48919941
C      -0.00985486     -0.86561134      0.44998025
C      -1.34689645     -0.49999196     -0.20361707
Cl      0.68862324      0.00000000      0.00000000
H      -3.73981062     -0.82100177     -2.04862624
H      -4.55374915     -0.08837575     -0.63620850
H      -5.17714993     -1.63283330     -1.41145582
H      -2.76422367     -3.05514569     -1.89478157
H      -2.24563201     -3.54337639     -0.19339452
H      -3.90581546     -3.78507830     -0.75356500
H      -2.02036557     -1.91923427      1.21641222
H      -4.14379949     -1.37061051      2.94579234
H      -3.74960165      3.80439897      2.12110996
H      -3.05356596      3.46293918      3.75597755
H      -2.06276222      1.10211275     -2.14862843
H      -0.27170628      3.15588783     -2.00630347
H       4.08957100      3.51286269     -2.34026597
H       6.87733975      1.62263926     -1.36152534
H       6.98037571     -0.49167131     -0.18428510
H       4.93570456     -1.64276361      0.51581684
H       1.85904348     -2.97644298     -0.26971178
H       3.15232180     -2.80422921      0.98043601
H       3.52231293     -2.55799103     -0.73739206
H       3.15225806     -0.86568883      1.96534290
H       1.01476624     -1.15569191     -1.39548885
H      -0.02123434     -1.96887346      0.56790786
H       0.10274632     -0.41861921      1.44063862
H      -1.26108640     -0.87092843     -1.25505108
H      -0.68862324      0.00000000      0.00000000
