27
C1CC[C@@H]2CCCN[C@H]2C1
C      -2.46995369     -0.59692867     -0.42216521
C      -2.41983032      0.86718119      0.00636687
C      -1.05944008      1.49887433     -0.28337505
C       0.07717893      0.68602476      0.34854230
C       1.44447525      1.30759497      0.04205361
C       2.56061923      0.43870288      0.61667609
C       2.42481164     -1.01492513      0.16766663
N       1.10597992     -1.56028254      0.49319189
C       0.03391065     -0.77736703     -0.13387361
C      -1.32730246     -1.40835720      0.18769838
H      -2.41506983     -0.65748075     -1.51614894
H      -3.43035153     -1.03421721     -0.12668961
H      -2.63212031      0.93859381      1.08029204
H      -3.20483388      1.42968630     -0.51152322
H      -1.04665544      2.52478715      0.10318662
H      -0.91454212      1.56539134     -1.36912340
H      -0.06374339      0.70292540      1.43960874
H       1.50747726      2.31713556      0.46431433
H       1.58027661      1.40351274     -1.04262813
H       3.53401817      0.83360741      0.30464346
H       2.53221037      0.48813768      1.71264884
H       3.18992307     -1.61747617      0.66924891
H       2.60967271     -1.09672599     -0.91044053
H       1.05390136     -2.52738045      0.17413116
H       0.16895431     -0.80628396     -1.22457228
H      -1.37041186     -2.43444492     -0.19785042
H      -1.46915457     -1.47028550      1.27472182
