38
CC(C)(C)OC(=O)N[C@@H](Cc1ccccc1)C(=O)O
C      -3.13227396      2.19357915     -0.85824247
C      -2.58441571      0.90710675     -1.49371542
C      -1.86320667      1.27156595     -2.79605525
C      -3.75087882     -0.05690823     -1.73608811
O      -1.65843336      0.37414103     -0.51145948
C      -0.98356340     -0.76597699     -0.74922097
O      -1.04517351     -1.47661217     -1.74164183
N      -0.19773837     -1.06213670      0.31686502
C       0.94692463     -1.98094022      0.22519850
C       1.91500970     -1.77494255      1.41029039
C       2.45732475     -0.36519239      1.50839580
C       2.10160827      0.45827872      2.58584512
C       2.58584833      1.76467621      2.66721750
C       3.43275148      2.25852654      1.67717586
C       3.80082539      1.44532407      0.60745733
C       3.31838517      0.13847700      0.52346085
C       0.55594453     -3.47498526      0.16445223
O       1.19282054     -4.36775471      0.71114864
O      -0.48985328     -3.76981221     -0.64042913
H      -3.85354940      2.69527048     -1.51190149
H      -3.62326241      1.97764191      0.09785396
H      -2.31951063      2.89493549     -0.63660756
H      -2.52369553      1.81872790     -3.47741684
H      -1.50671567      0.38405089     -3.32767243
H      -0.98210048      1.89069424     -2.59267830
H      -4.19799650     -0.37251476     -0.78674557
H      -4.52983891      0.40664067     -2.35110656
H      -3.42768775     -0.96809365     -2.24861015
H      -0.12861951     -0.28702719      0.96552169
H       1.46411814     -1.76413849     -0.71831381
H       2.77133912     -2.45749887      1.33039215
H       1.40764738     -2.04035036      2.34770098
H       1.44865388      0.08882083      3.37409074
H       2.30719347      2.39649040      3.50690595
H       3.81259667      3.27484447      1.74340225
H       4.46882168      1.82819608     -0.16017957
H       3.62651959     -0.48340845     -0.31433632
H      -0.81581887     -2.99969555     -1.16289332
