17
CCC1NC(=O)NC1=O
C      -2.26903701      0.61641865     -0.03234710
C      -1.21749317     -0.47656030     -0.15340872
C       0.08527435     -0.10421438      0.54058781
N       0.80147293      0.95851288     -0.12341264
C       2.07071816      0.57765920     -0.48742904
O       2.90952236      1.31362251     -0.97359665
N       2.22733438     -0.73302310     -0.19312990
C       1.12395650     -1.22396857      0.43227848
O       0.99826211     -2.36616943      0.84642989
H      -1.94238864      1.53949688     -0.52114401
H      -3.20170668      0.29656317     -0.50778428
H      -2.48319403      0.83936509      1.01777307
H      -1.61578814     -1.39876415      0.28685646
H      -1.04011786     -0.68900757     -1.21520757
H      -0.05011037      0.16715944      1.59216583
H       0.52898618      1.93248973     -0.15467619
H       3.07430892     -1.24958004     -0.35395545
