17
Cc1ccc(Cl)cc1N
C      -1.95998872      0.83201232     -0.47489643
C      -0.52890943      0.45745113     -0.19967954
C       0.47872058      1.41267368     -0.42113850
C       1.82010561      1.09345752     -0.21442299
C       2.16187013     -0.18844708      0.19916109
Cl      3.81845012     -0.60103478      0.42040291
C       1.17309312     -1.14444396      0.42727826
C      -0.18206156     -0.81954527      0.28246781
N      -1.13953423     -1.83800057      0.41243898
H      -2.54114792      0.81115040      0.45255429
H      -2.03935892      1.84079108     -0.89395969
H      -2.40248913      0.14144263     -1.20008224
H       0.22304960      2.41062445     -0.77120213
H       2.58842498      1.83982491     -0.39530790
H       1.46116060     -2.14949535      0.72256892
H      -2.07440969     -1.50562230      0.62371266
H      -0.85697513     -2.59283882      1.03010451
