48
CCN1Cc2nc3c(-c4cc(OC)ccc4OC)c(F)ccc3c(N)c2C1=O
C      -5.47248546     -0.46695808      2.28897912
C      -4.75326051      0.86566368      2.40924217
N      -3.62968213      0.96383811      1.50002052
C      -2.33905730      0.35419730      1.77917311
C      -1.59401088      0.58168664      0.49473295
N      -0.32605896      0.21608939      0.25566017
C       0.18765644      0.50587027     -0.96499483
C       1.52143515      0.16296444     -1.24972783
C       2.36049570     -0.54599848     -0.25992459
C       2.90236525      0.17093855      0.82815189
C       3.70261530     -0.46192765      1.77816117
O       4.27769858      0.12680493      2.87035283
C       4.03008879      1.51493305      3.05561297
C       3.96768206     -1.82345293      1.64208024
C       3.44010675     -2.55369352      0.57337508
C       2.63618996     -1.92550984     -0.38182920
O       2.06590205     -2.56210653     -1.45671658
C       2.38240771     -3.93382555     -1.64904083
C       2.07325419      0.49738455     -2.49574487
F       3.35225248      0.19583718     -2.77130412
C       1.33933244      1.15887789     -3.46565930
C       0.01624664      1.49268476     -3.20573912
C      -0.59088495      1.16944237     -1.97259132
C      -1.94870608      1.48889660     -1.69864402
N      -2.75095996      2.21942389     -2.59907077
C      -2.40461750      1.20916867     -0.42374768
C      -3.71858087      1.41603797      0.19408659
O      -4.68817190      1.87343059     -0.38234357
H      -4.80678393     -1.29958466      2.53765923
H      -6.32846293     -0.50002795      2.96989365
H      -5.83855797     -0.62562222      1.26923326
H      -4.38639275      1.02009832      3.42915177
H      -5.45659117      1.67233186      2.17491524
H      -1.86765826      0.86603654      2.62205628
H      -2.46566427     -0.71380306      1.97532353
H       2.67252415      1.22906949      0.90575813
H       4.43005795      2.10206683      2.22231154
H       2.96241008      1.70970584      3.20158174
H       4.55249850      1.82898517      3.96440433
H       4.59104363     -2.32468893      2.37881895
H       3.67498805     -3.61102753      0.52153328
H       3.45861572     -4.07622758     -1.79237126
H       1.87921916     -4.26764010     -2.56164207
H       2.00739174     -4.54442835     -0.82123660
H       1.80368746      1.41085622     -4.41380186
H      -0.53606856      2.02387214     -3.97688613
H      -3.73695846      2.23973033     -2.31562993
H      -2.64855112      1.94959938     -3.57100290
