35
O=C(O)c1ccccc1C(=O)Nc1cccc2ccccc12
O       0.90707025     -2.12568650      0.04110560
C       2.08375259     -1.89839180     -0.16208321
O       2.81247674     -2.54270882     -1.08474946
C       2.88737690     -0.91747354      0.57203784
C       4.01632852     -1.39481524      1.25967352
C       4.81325766     -0.51919226      1.99652579
C       4.49190745      0.83433721      2.04542510
C       3.37403337      1.31172342      1.35691888
C       2.55012154      0.44016198      0.62121810
C       1.43175366      1.07763217     -0.13019276
O       1.69746063      2.12673597     -0.70818941
N       0.19669250      0.46333653     -0.05449095
C      -1.03759104      0.90070818     -0.61843398
C      -1.10894350      2.06889093     -1.38979275
C      -2.31183234      2.49338242     -1.94812756
C      -3.47046009      1.75671104     -1.74376083
C      -3.44787598      0.58718476     -0.97597074
C      -4.64312173     -0.12784067     -0.78763062
C      -4.67365772     -1.29280180     -0.02712131
C      -3.50602327     -1.75620128      0.55716219
C      -2.30868874     -1.05513202      0.37823257
C      -2.23127147      0.13470675     -0.39459746
H       2.18456676     -3.14458376     -1.53743896
H       4.27742862     -2.45059644      1.21959046
H       5.68793992     -0.89089013      2.52547291
H       5.11666428      1.52424301      2.60853879
H       3.14828211      2.37758379      1.38510234
H       0.16189944     -0.42827067      0.42724280
H      -0.23611209      2.68139908     -1.58722798
H      -2.33930223      3.40144752     -2.54479011
H      -4.39758365      2.10880255     -2.19108364
H      -5.57032229      0.22303526     -1.23667303
H      -5.60653318     -1.83285949      0.10803534
H      -3.51720349     -2.66414060      1.15459547
H      -1.43249009     -1.47043757      0.86547707
