18
O=C/C=C/c1ccccc1
O       4.58934756      0.81501813     -0.55510702
C       3.69853672      0.09116793     -0.12832396
C       2.27481695      0.42687441     -0.33033404
C       1.32212221     -0.38583683      0.14894589
C      -0.13343472     -0.17863220      0.02297607
C      -0.70793267      0.92107042     -0.62969738
C      -2.09750926      1.05935169     -0.71469240
C      -2.93308800      0.10069281     -0.14869428
C      -2.38065038     -0.99751290      0.50303927
C      -0.99204212     -1.13533346      0.58775859
H       3.91206239     -0.83927243      0.42328014
H       2.08860941      1.34350704     -0.87370012
H       1.61149852     -1.28858751      0.68431859
H      -0.09458400      1.69283803     -1.08548376
H      -2.52538960      1.91889610     -1.22478849
H      -4.01235147      0.20983852     -0.21574071
H      -3.02884344     -1.74891702      0.94668392
H      -0.59116809     -2.00516272      1.10388088
