32
NC(CSCCSCC(N)C(=O)O)C(=O)O
N       3.63508466      0.34688898     -1.63114553
C       4.00185832     -0.65691368     -0.59585216
C       2.87991946     -0.88536482      0.43108635
S       2.27586099      0.65583719      1.23517385
C       0.75517720      0.95059738      0.25944660
C      -0.39886634      0.08810505      0.76615349
S      -1.89784458      0.40056354     -0.22992045
C      -3.04514850     -0.73881393      0.63837351
C      -4.49506676     -0.61845095      0.14094898
N      -4.62267116     -0.56868652     -1.35336182
C      -5.18359996      0.61943498      0.73671740
O      -5.11165366      0.97665246      1.90171538
O      -5.94017347      1.25595638     -0.19673286
C       5.31238415     -0.28990400      0.11265468
O       5.78982789     -0.84931880      1.08704445
O       5.98078603      0.72802676     -0.47714500
H       3.41347436      1.21593806     -1.13623136
H       4.49439257      0.57678780     -2.14012513
H       4.20204695     -1.59907862     -1.11979306
H       2.03874777     -1.39765138     -0.04708176
H       3.23314188     -1.54164779      1.23399208
H       0.95987082      0.77083073     -0.80052907
H       0.50808849      2.01215555      0.37176160
H      -0.62255401      0.32600991      1.81160308
H      -0.15844266     -0.97683941      0.69125925
H      -2.68689609     -1.75752089      0.45434978
H      -2.98769845     -0.54492175      1.71431972
H      -5.07694860     -1.47848906      0.49319248
H      -3.84874777      0.02880280     -1.68448050
H      -4.36761910     -1.49218545     -1.71563514
H      -5.81284307      0.74679930     -1.03734045
H       6.77611264      0.84169861      0.08558159
