15
O=Cc1ccccc1O
O       2.97845462      0.34048421     -0.15029027
C       1.98388588      1.03521792      0.03554295
C       0.63395229      0.44320403      0.03022594
C      -0.46775142      1.27784525      0.24699569
C      -1.75554211      0.73700207      0.24592099
C      -1.94096860     -0.62984321      0.02948392
C      -0.84108499     -1.46164731     -0.18669252
C       0.44365979     -0.92595719     -0.18626551
O       1.47540072     -1.79784225     -0.40442535
H       2.05950495      2.12098900      0.21247088
H      -0.33991254      2.34366303      0.41693299
H      -2.61718100      1.37931833      0.41371022
H      -2.94394375     -1.05032414      0.02878396
H      -0.98392443     -2.52584427     -0.35530992
H       2.31545058     -1.28626546     -0.37708398
