57
COCCC(=O)NC(C)c1ccc(Nc2ncc3cc(-c4ccncc4)ccc3n2)cc1
C      -9.75841580      1.14702598      2.97978024
O      -8.36394828      1.12201984      2.69862404
C      -8.08289770      0.34225614      1.53348901
C      -6.58432087      0.37002101      1.28861768
C      -6.21247042     -0.42296614      0.05727862
O      -7.03222545     -0.98402344     -0.66192276
N      -4.85696611     -0.44605107     -0.17770681
C      -4.27563030     -1.15675649     -1.30536957
C      -4.25593011     -2.66886204     -1.05767326
C      -2.90484482     -0.57746787     -1.60581259
C      -2.76976661      0.40031453     -2.59932919
C      -1.52286308      0.97458860     -2.87427529
C      -0.37115076      0.60375067     -2.16403338
N       0.84253540      1.21563921     -2.49053098
C       2.14881584      1.09305253     -2.02612912
N       3.03060734      1.91970273     -2.61109458
C       4.30898196      1.84456840     -2.19537090
C       4.75229169      0.97255684     -1.21801434
C       6.09258153      0.89373614     -0.78143139
C       6.47021364     -0.01585287      0.21658147
C       7.86349320     -0.10753488      0.67997001
C       8.91871886     -0.27819729     -0.22445662
C      10.21473807     -0.36416288      0.26015017
N      10.53307131     -0.29036855      1.56829181
C       9.50911001     -0.12418809      2.42991030
C       8.18177334     -0.02984957      2.04156521
C       5.47029292     -0.83668048      0.75483599
C       4.14392637     -0.74564272      0.30902993
C       3.76385979      0.15462484     -0.67545646
N       2.48562061      0.21364964     -1.07044179
C      -0.51560430     -0.36389032     -1.16784380
C      -1.76093768     -0.94264614     -0.88550556
H     -10.31043849      1.59290769      2.14607506
H     -10.12638840      0.13530317      3.17897698
H      -9.91809867      1.75982159      3.87279074
H      -8.62020752      0.76323267      0.67516617
H      -8.42601257     -0.68732136      1.69099721
H      -6.05591751     -0.04120389      2.15700814
H      -6.24613202      1.40573581      1.16430586
H      -4.23051181      0.02079302      0.46602037
H      -4.92633993     -0.98605473     -2.17378838
H      -3.75307079     -3.19703949     -1.87621588
H      -5.27491417     -3.06339168     -0.98154219
H      -3.74788300     -2.92447308     -0.12106195
H      -3.63720522      0.72763112     -3.16991645
H      -1.46303590      1.72632988     -3.65814428
H       0.82125702      1.92063112     -3.21283163
H       4.98794875      2.53250552     -2.69159612
H       6.83714863      1.55824694     -1.21694946
H       8.74099978     -0.35865355     -1.29232633
H      11.05528460     -0.50191068     -0.41362631
H       9.79052672     -0.06652173      3.47762239
H       7.41282118      0.11291752      2.79451671
H       5.71320133     -1.57087229      1.52134482
H       3.39037023     -1.39941292      0.74289460
H       0.33777546     -0.68999362     -0.58082447
H      -1.81383730     -1.68157327     -0.08953951
