25
O=C(O)COc1ccc2ccccc2c1
O       4.63613637     -0.19602535      1.69760832
C       4.47870416     -0.21688115      0.48837878
O       5.55510851     -0.29192487     -0.32751463
C       3.17864480     -0.16856351     -0.29250735
O       2.07257005     -0.09021432      0.59751209
C       0.82563084     -0.03931554      0.03837803
C       0.53567070     -0.05700406     -1.32410530
C      -0.79309266      0.00108296     -1.75933819
C      -1.85116012      0.07764717     -0.84069101
C      -3.18922788      0.13651576     -1.26346675
C      -4.22783682      0.21233649     -0.33398055
C      -3.94227919      0.23023840      1.02806881
C      -2.61750939      0.17236295      1.46367014
C      -1.56131446      0.09580297      0.54110513
C      -0.22217150      0.03680893      0.96085225
H       6.31252575     -0.31604057      0.29582356
H       3.21187999      0.72232133     -0.92990881
H       3.11856793     -1.08756941     -0.88654416
H       1.31306742     -0.11515286     -2.07820862
H      -0.99667945     -0.01401877     -2.82796706
H      -3.43245401      0.12366679     -2.32342786
H      -5.25904298      0.25735931     -0.67428468
H      -4.74963096      0.28924101      1.75329471
H      -2.41309195      0.18741492      2.53203812
H       0.01698487      0.04991142      2.02251447
