19
Cc1cc([N+](=O)[O-])ccc1N
C      -1.99305664     -1.30559463      0.19608852
C      -0.75561631     -0.45867093      0.06547512
C       0.49362651     -1.09339800     -0.06106177
C       1.66549199     -0.33111509     -0.14460885
N       2.96527810     -1.00172516     -0.27151728
O       2.97491044     -2.24061765     -0.31016276
O       3.97804813     -0.28990286     -0.33603779
C       1.60725135      1.06299498     -0.08998353
C       0.36514972      1.69011095      0.03108332
C      -0.82519622      0.94829327      0.05818196
N      -2.03091147      1.62198055      0.29686042
H      -2.65306501     -1.14500911     -0.66237091
H      -1.74977720     -2.37281714      0.23262022
H      -2.52711230     -1.06047601      1.11981744
H       0.54246007     -2.18102710     -0.07891944
H       2.50756778      1.67207351     -0.12681977
H       0.33129788      2.77511704      0.10403632
H      -2.85981453      1.12178430     -0.00665234
H      -2.03653230      2.58799907     -0.01602888
