42
CCC(C)Nc1c([N+](=O)[O-])cc(C(C)(C)C)cc1[N+](=O)[O-]
C      -4.66006345      1.40623281      0.83436756
C      -4.50816570      0.05330037      0.15149911
C      -3.06640731     -0.48279292      0.19981848
C      -3.02764823     -1.90988638     -0.35235035
N      -2.20284654      0.40441343     -0.60574555
C      -0.81542709      0.35069867     -0.37444165
C       0.08539124     -0.29863041     -1.24337756
N      -0.37793193     -0.89681075     -2.49921615
O       0.21774472     -1.90470212     -2.90565393
O      -1.33543480     -0.36215814     -3.07809265
C       1.46570220     -0.41413255     -0.95296324
C       2.02217563      0.11510679      0.22605981
C       3.52766750     -0.03243139      0.51062369
C       4.33701720      0.65644559     -0.60901697
C       3.90210593     -1.52948731      0.56164957
C       3.97346186      0.59533903      1.85057985
C       1.14439241      0.77370428      1.09457650
C      -0.22905840      0.88013297      0.78879098
N      -1.02658415      1.64949901      1.72303883
O      -1.33300867      1.08934266      2.78548860
O      -1.27706231      2.82405512      1.42319361
H      -5.70873847      1.71984839      0.81709175
H      -4.33997751      1.35589365      1.87978089
H      -4.07278373      2.17853102      0.32858467
H      -4.84714600      0.14007011     -0.88844271
H      -5.17887190     -0.65859939      0.64804661
H      -2.74116559     -0.51111412      1.24500623
H      -3.70076759     -2.56320356      0.21294321
H      -3.33032758     -1.94070711     -1.40479781
H      -2.02134487     -2.33502690     -0.28105337
H      -2.43082826      0.32467274     -1.60593653
H       2.11318620     -0.92793122     -1.66474338
H       4.07202006      1.71720457     -0.69175795
H       4.16381298      0.19716853     -1.58840142
H       5.41390503      0.59593804     -0.41272054
H       4.96396569     -1.66344546      0.79917104
H       3.72194598     -2.03510736     -0.39331560
H       3.31993891     -2.05569424      1.32746519
H       3.46037731      0.13413596      2.70254294
H       3.77712921      1.67355600      1.87634626
H       5.04992228      0.46071166      2.01115644
H       1.49972773      1.22585991      2.01881471
