19
CCCC(N)C(=O)O
C       2.63389543      0.58323280     -0.87378086
C       1.62525842     -0.19602961     -0.04359662
C       0.19015572      0.23481794     -0.35983578
C      -0.86481140     -0.57710925      0.40368109
N      -0.71960647     -0.38527197      1.86680720
C      -2.27780203     -0.18585541     -0.06073452
O      -2.62376647      0.10057970     -1.19542330
O      -3.19584859     -0.22028495      0.93383007
H       2.56041412      1.65692102     -0.67348111
H       2.47077236      0.42083181     -1.94398783
H       3.65196551      0.26143846     -0.63310364
H       1.84679509     -0.03872693      1.01780610
H       1.74448018     -1.26661701     -0.24664361
H       0.06891136      1.30459978     -0.14292895
H       0.01815532      0.12344509     -1.43844752
H      -0.74785896     -1.64520406      0.18767745
H      -0.80306918      0.61050882      2.07366757
H      -1.54548333     -0.80352216      2.30564762
H      -4.03255707      0.02224593      0.48359010
