29
CN(C)P(=O)(N(C)C)N(C)C
C       1.50681736     -0.53903784      1.54911450
N       1.38870889     -0.25975603      0.12605436
C       2.41429243     -0.98437564     -0.61404740
P      -0.08473177     -0.10430219     -0.60305223
O      -0.10604656     -0.62618044     -2.01512814
N      -1.20561158     -0.88283233      0.34460728
C      -2.60226207     -0.49407845      0.12525927
C      -1.14803754     -2.34721732      0.27621243
N      -0.42044700      1.51325840     -0.52210230
C       0.18944671      2.33702976     -1.56218678
C      -0.34572231      2.21205713      0.75351793
H       0.78639041      0.04007300      2.13313637
H       1.34826482     -1.59778812      1.77537804
H       2.49881206     -0.25678958      1.91950538
H       2.18122219     -2.05259321     -0.67201377
H       3.40272261     -0.86539043     -0.15646384
H       2.49910948     -0.59457789     -1.63382192
H      -3.27193260     -1.01504150      0.81909271
H      -2.92267031     -0.70996846     -0.89992363
H      -2.75055019      0.57389871      0.30816911
H      -1.78131829     -2.80036799      1.04694006
H      -0.13292985     -2.71321532      0.45192875
H      -1.46654332     -2.71926497     -0.70403258
H      -0.02427002      1.92736244     -2.55461607
H       1.27671120      2.39096185     -1.44253974
H      -0.21528053      3.35524280     -1.55608088
H       0.68951878      2.35903307      1.07872774
H      -0.87468929      1.66017002      1.53627402
H      -0.82897369      3.19369055      0.69209134
