29
CNC(=O)Oc1cc(C)cc(C)c1C
C      -4.75820582      0.28703135      0.04512307
N      -3.55580577     -0.02597561     -0.67666035
C      -2.31519231      0.26884350     -0.17997254
O      -2.11359510      0.90112244      0.84747536
O      -1.35483144     -0.27526610     -1.01675683
C      -0.04020349     -0.03057587     -0.59808799
C       0.56948636      1.14728598     -1.03608540
C       1.89185638      1.41500230     -0.68235882
C       2.54864991      2.69531534     -1.10385919
C       2.57494781      0.49857204      0.12809306
C       1.96688880     -0.69430955      0.56463390
C       2.75932491     -1.63775536      1.42888363
C       0.64508344     -0.98611828      0.16945396
C      -0.04381247     -2.24686195      0.61417994
H      -4.66613541      1.25723765      0.54055493
H      -4.92625920     -0.48957374      0.79586383
H      -5.59252795      0.30533307     -0.65971147
H      -3.58125543     -0.66344582     -1.45992362
H       0.00709632      1.85151724     -1.64259866
H       2.38114113      3.46851992     -0.34779863
H       2.14757111      3.04405908     -2.06134635
H       3.62677620      2.55579150     -1.23568799
H       3.59820094      0.71923871      0.42888810
H       3.02244079     -2.53658117      0.86256780
H       2.18579012     -1.91918414      2.31789536
H       3.68884520     -1.17651213      1.77944262
H      -0.44644232     -2.11559320      1.62330729
H       0.64524495     -3.09721556      0.61050684
H      -0.86507766     -2.51990162     -0.05602187
