31
CC(=O)N[C@@H](Cc1c[nH]c2ccccc12)C(=O)[O-]
C      -2.77084678     -1.97985538     -0.25168193
C      -2.48238786     -0.68467197      0.45819709
O      -2.59634960     -0.58357293      1.67724435
N      -2.09330185      0.32307675     -0.37136098
C      -1.76854349      1.70254731      0.04326805
C      -0.47325471      1.79706749      0.86153764
C       0.73556519      1.18463749      0.20516016
C       1.48267646      1.75462778     -0.80702147
N       2.47602606      0.88525751     -1.15448120
C       2.42183151     -0.24211771     -0.36863316
C       3.23621832     -1.38170110     -0.36284229
C       2.93064016     -2.39270423      0.55364207
C       1.85210269     -2.26742739      1.42600026
C       1.04884543     -1.12150111      1.40569480
C       1.33540404     -0.08445864      0.49384990
C      -1.71809023      2.68089520     -1.17433730
O      -1.47057936      3.89269151     -0.91587714
O      -1.97176807      2.13250809     -2.29489723
H      -3.83111883     -2.22086338     -0.13828639
H      -2.16146615     -2.77216185      0.19185824
H      -2.53615782     -1.92175895     -1.31819205
H      -2.11136640      0.23652466     -1.38625635
H      -2.60032721      2.03718913      0.67680423
H      -0.24651919      2.84439123      1.09924090
H      -0.62840413      1.30721480      1.83106320
H       1.35641697      2.69860971     -1.32417632
H       3.14573618      1.04394638     -1.89199787
H       4.07164205     -1.48174202     -1.04654049
H       3.54141084     -3.29104294      0.58159751
H       1.62346686     -3.06405494      2.12828920
H       0.20249891     -1.03155050      2.08161386
