34
OC(c1ccc(F)cc1)(c1cncnc1)c1ccccc1Cl
O      -1.02933270      1.16779646     -1.48618622
C      -0.36177514      0.51036630     -0.38986006
C       1.05222607      0.11222433     -0.88157265
C       1.68708165     -1.07433841     -0.45920576
C       2.97355975     -1.39467487     -0.90090326
C       3.64397307     -0.52980343     -1.75518767
F       4.87763048     -0.83982523     -2.17379131
C       3.05634369      0.65554672     -2.17320487
C       1.77055692      0.97868040     -1.73517725
C      -0.28946048      1.57518706      0.70061232
C      -1.28546423      2.52375805      0.87563006
N      -1.29163353      3.45486209      1.85383401
C      -0.24552147      3.42704442      2.68878320
N       0.77511633      2.56045782      2.63838753
C       0.72725279      1.65403049      1.63888106
C      -1.25277875     -0.70331981     -0.02590723
C      -1.64283568     -0.94457055      1.31270611
C      -2.43428238     -2.04287488      1.66479102
C      -2.85592654     -2.93999405      0.69329926
C      -2.48188284     -2.74122822     -0.63146993
C      -1.68880309     -1.64212057     -0.99091230
Cl     -1.26690287     -1.53459639     -2.66936365
H      -0.86734202      0.61971878     -2.27569871
H       1.19357453     -1.76725318      0.21973093
H       3.45733478     -2.31253535     -0.58096609
H       3.60239460      1.32353939     -2.83203914
H       1.33022715      1.92178743     -2.05880933
H      -2.14861172      2.56340352      0.21413643
H      -0.22433402      4.16977023      3.47835907
H       1.56851301      0.96606699      1.63663982
H      -1.34394247     -0.28047271      2.12188540
H      -2.72162648     -2.19201761      2.70371271
H      -3.47263402     -3.79275369      0.96568941
H      -2.81069440     -3.45186151     -1.38682289
