20
NC(=O)OCc1ccccc1
N       3.77996084     -0.62004774      0.74051837
C       3.00101722     -0.34370467     -0.32792344
O       3.43178908     -0.21390615     -1.46185327
O       1.71340949     -0.23964399      0.05864110
C       0.81950114      0.05278700     -1.01675622
C      -0.57469591      0.14137811     -0.45121659
C      -1.37953128     -1.00299058     -0.35978228
C      -2.66445230     -0.92323626      0.17981933
C      -3.15357824      0.29776316      0.64054914
C      -2.35731523      1.43920926      0.56691616
C      -1.07211521      1.36160149      0.02766611
H       3.36245480     -0.71531999      1.65322496
H       4.77408517     -0.72806375      0.61096149
H       0.86497394     -0.73861511     -1.77543034
H       1.09162601      1.00472126     -1.48976856
H      -1.00713387     -1.96432078     -0.70687048
H      -3.28250962     -1.81495198      0.24381797
H      -4.15353287      0.35874975      1.06175037
H      -2.73582588      2.39004474      0.93282488
H      -0.45812730      2.25854621     -0.01493603
