40
CCN(CC)C(C)COC(=O)c1ccc(N)cc1
C      -3.11799072      2.06316876     -0.28846477
C      -3.31988089      0.81090598     -1.13254747
N      -2.87936341     -0.46110864     -0.54304042
C      -3.58909216     -0.86470930      0.67503092
C      -5.09117933     -1.04154741      0.47378825
C      -1.40463644     -0.59064766     -0.47510877
C      -1.03745036     -2.03107009     -0.87297464
C      -0.73255116     -0.23036729      0.87368661
O       0.70411160     -0.29637899      0.78087210
C       1.31031140      0.80013517      0.26277280
O       0.74909747      1.81447911     -0.11902713
C       2.78501089      0.60813212      0.21264250
C       3.57191525      1.64908763     -0.29344170
C       4.96231800      1.51276495     -0.36383949
C       5.59121781      0.35793065      0.10677294
N       6.96570884      0.17951252     -0.07739542
C       4.79816627     -0.70105648      0.55576875
C       3.40612289     -0.57473822      0.62975638
H      -3.62455789      1.99194547      0.67817854
H      -2.05820099      2.26725527     -0.11721083
H      -3.53369995      2.93065168     -0.81240197
H      -4.38003753      0.73816942     -1.40142536
H      -2.81273609      0.95341550     -2.09580185
H      -3.20624966     -1.83554386      1.01158869
H      -3.41858308     -0.15819096      1.49517872
H      -5.53632973     -1.48703012      1.36982041
H      -5.59480512     -0.08577004      0.30073660
H      -5.30182043     -1.70693076     -0.37000986
H      -0.95396169      0.03344366     -1.25791881
H       0.04695317     -2.14217213     -0.98105985
H      -1.37511161     -2.75985093     -0.12859689
H      -1.48669586     -2.29689705     -1.83678392
H      -1.03574030      0.75723023      1.23706222
H      -1.01706250     -0.94889993      1.65044251
H       3.10734828      2.56675002     -0.64925469
H       5.54989194      2.32127034     -0.79142863
H       7.49547511      1.04526134     -0.10513333
H       7.38207902     -0.50665679      0.54422573
H       5.25858280     -1.63989206      0.85342802
H       2.82342614     -1.41372498      1.00111310
