34
O=C([O-])CN(CCN(CC(=O)[O-])CC(=O)[O-])CC(=O)[O-].[Fe+3].[K+]
O       2.71519508     -0.16683333      3.90924686
C       2.86786869     -0.71693958      2.77409440
O       3.81846337     -1.49217342      2.42369638
C       1.69512578     -0.56853810      1.73870869
N       1.72360572      0.65914850      0.85853279
C       0.68015090      0.53020186     -0.22051410
C      -0.81097885      0.28001691      0.23735787
N      -1.84904146      0.11763274     -0.84235432
C      -1.44149187     -1.00196032     -1.77137726
C      -2.51485168     -1.47012875     -2.81927580
O      -2.55180140     -0.85371922     -3.92973264
O      -3.16955975     -2.51963058     -2.50715630
C      -3.18533893     -0.21175439     -0.22557587
C      -3.76795305      0.85613187      0.76304835
O      -3.77766715      0.51411300      1.99095098
O      -4.29754378      1.89498540      0.25758372
C       3.09164920      0.79206326      0.23767136
C       3.30223378      2.02804811     -0.70315631
O       3.40555642      1.75701017     -1.94435254
O       3.48706036      3.15844718     -0.15248320
Fe      0.00000000      0.00000000      0.00000000
K       0.00000000      0.00000000      0.00000000
H       1.68213944     -1.47421226      1.11822398
H       0.77256588     -0.55540924      2.33002381
H       0.67724262      1.45343232     -0.81202380
H       0.98759128     -0.28459429     -0.88616641
H      -0.84223657     -0.61628088      0.86759617
H      -1.09476778      1.13266630      0.86565046
H      -1.13965719     -1.88175553     -1.18802434
H      -0.57405012     -0.67507730     -2.35591284
H      -3.93649579     -0.29705984     -1.01971454
H      -3.13593795     -1.18107314      0.28717411
H       3.83667259      0.91519524      1.03259931
H       3.34625219     -0.12195269     -0.31433897
