21
O.O.O.O.O.O=[Si]([O-])[O-].[Na+].[Na+]
O      -0.00328287      0.37774900     -0.00000000
O      -0.00476052      0.39435243     -0.00000000
O      -0.00575341      0.37685138     -0.00000000
O      -0.00496576      0.37747957     -0.00000000
O      -0.00527365      0.38650325     -0.00000000
O      -0.02298534      1.62009908     -0.00128468
Si     -0.00535912      0.05007097     -0.00024639
O       1.50358319     -0.80960918      0.06698061
O      -1.47523872     -0.86056086     -0.06544955
Na      0.00000000      0.00000000      0.00000000
Na      0.00000000      0.00000000      0.00000000
H      -0.81434121     -0.19003677     -0.00000000
H       0.81762408     -0.18771223      0.00000000
H      -0.79253368     -0.19899278     -0.00000000
H       0.79729420     -0.19535965      0.00000000
H      -0.80582046     -0.19046022     -0.00000000
H       0.81157387     -0.18639115      0.00000000
H      -0.81036038     -0.19049237     -0.00000000
H       0.81532614     -0.18698720      0.00000000
H       0.80123179     -0.19137323      0.00000000
H      -0.79595814     -0.19513002     -0.00000000
