12
O=C(O)c1ccc(Cl)o1
O       2.41537512      1.38189555     -0.39585546
C       1.77105738      0.35150716     -0.52342609
O       2.40911360     -0.81675762     -0.76909754
C       0.34701893      0.16731632     -0.44960872
C      -0.45779833     -0.95073462     -0.58023009
C      -1.79386150     -0.51480227     -0.40750534
C      -1.73441703      0.84213763     -0.18125580
Cl     -3.06283958      1.89559265      0.09586487
O      -0.43987308      1.26123144     -0.20558790
H       3.35074850     -0.54710954     -0.79277871
H      -0.11150576     -1.95671680     -0.77677941
H      -2.69301827     -1.11355989     -0.44289848
