24
Oc1ccc(Sc2ccccc2)cc1
O      -4.52318633      0.94303561      0.97022719
C      -3.40357962      0.47635624      0.34853576
C      -3.30117873     -0.89423795      0.14305329
C      -2.17107130     -1.41663307     -0.48938367
C      -1.14167560     -0.56696390     -0.90874930
S       0.28642349     -1.26057533     -1.72336812
C       1.62154244     -0.65624179     -0.70492130
C       2.66473469      0.06167060     -1.29913934
C       3.72503543      0.53737966     -0.52438281
C       3.75141292      0.29225452      0.84755263
C       2.72092842     -0.43145128      1.44530058
C       1.66072421     -0.90792678      0.67103338
C      -1.26462893      0.81318542     -0.70398635
C      -2.39505636      1.33741764     -0.07103082
H      -4.46128074      1.90996434      1.03723917
H      -4.09863727     -1.55476374      0.47137316
H      -2.10159134     -2.48982549     -0.64943747
H       2.65984279      0.25616880     -2.36902445
H       4.53126324      1.09594693     -0.99286631
H       4.57759297      0.66087881      1.45028351
H       2.74282896     -0.62864988      2.51401518
H       0.86821950     -1.47671720      1.15133405
H      -0.48073097      1.49031723     -1.03497145
H      -2.46793186      2.40941060      0.08146972
