18
O=C(O)/C=C(\CC(=O)O)C(=O)O
O      -1.14773954     -2.31011403     -0.18614352
C      -1.74948026     -1.40330379      0.35207257
O      -2.93677308     -1.59451166      0.94879048
C      -1.35228306      0.00535835      0.47158641
C      -0.26528655      0.54509386     -0.11252926
C       0.71399028     -0.14421797     -1.02864543
C       1.95656943     -0.53639659     -0.26246182
O       2.13818891     -0.48359650      0.94317373
O       2.92548382     -1.00621006     -1.07600983
C       0.06479223      1.96797635      0.14108881
O       1.00679687      2.56542364     -0.34914239
O      -0.78297732      2.58985011      0.97567672
H      -3.11185508     -2.55161626      0.83124832
H      -2.00152807      0.59491745      1.11221400
H       0.29560976     -1.03595816     -1.49954804
H       1.00233260      0.52881282     -1.84499629
H       3.65972879     -1.22728959     -0.46542471
H      -0.41556972      3.49578203      1.04905025
