21
OCCCCCCCl
O      -2.70423635      0.82693750      1.35367104
C      -2.82665642      0.02145745      0.19014133
C      -1.61681395      0.23002243     -0.71273816
C      -0.31252396     -0.21903726     -0.04546327
C       0.88452034     -0.01281111     -0.97650006
C       2.20147616     -0.53803182     -0.39755092
C       2.65815621      0.22381795      0.84058212
Cl      4.25036744     -0.36862222      1.37558817
H      -3.50162496      0.67620342      1.88990911
H      -2.91334301     -1.02669421      0.49375057
H      -3.74133866      0.31231618     -0.33596942
H      -1.53552554      1.29370358     -0.96773355
H      -1.76574706     -0.32579765     -1.64559876
H      -0.38755493     -1.27836335      0.22804141
H      -0.16450350      0.34653910      0.88076496
H       0.69562188     -0.53314646     -1.92372710
H       0.98810636      1.05241525     -1.21660914
H       2.97002493     -0.45792884     -1.17683282
H       2.09852197     -1.60508963     -0.16447376
H       2.75528802      1.29365076      0.63375817
H       1.96778503      0.08845893      1.67699006
