14
O=c1[nH]c2cncnc2[nH]1
O       3.36015770     -0.03007967      0.10904432
C       2.14374400     -0.04145667      0.06777105
N       1.30051628      1.07800581      0.13018240
C      -0.00947562      0.62494330      0.05014331
C      -1.21555931      1.24849417      0.06047722
N      -2.35696561      0.53042856     -0.03536360
C      -2.22884348     -0.81923918     -0.14008578
N      -1.08232761     -1.52484927     -0.15902270
C      -0.00707991     -0.74972231     -0.06076775
N       1.31748513     -1.16297207     -0.05019154
H       1.62885617      2.02642960      0.21765041
H      -1.32697134      2.32194965      0.14345078
H      -3.15219731     -1.38554451     -0.21644103
H       1.62866088     -2.11638742     -0.11684710
