54
CC12CCC(=O)C=C1CCC1C2C2CC3(C(O)O2)C(C(=O)CO)CCC13
C      -2.65584554     -1.57517733     -1.05172376
C      -2.54196154     -0.12217870     -0.54346741
C      -3.22894132      0.82341389     -1.57488632
C      -4.74925168      0.74713611     -1.56228581
C      -5.27852930      1.00280322     -0.17673972
O      -6.37190571      1.52575688      0.02341303
C      -4.47621161      0.52909353      0.97394245
C      -3.25721291     -0.01752143      0.81563887
C      -2.53497047     -0.58128890      2.02156825
C      -1.09167616     -0.09193341      2.12240629
C      -0.34544145     -0.36977685      0.81689008
C      -1.04906725      0.34543135     -0.36710750
C      -0.16327454      0.26148463     -1.63857149
C       1.10656084      1.04782426     -1.37708572
C       1.84381430      0.03798583     -0.49731719
C       1.62778693     -1.21522222     -1.34002662
O       2.53768831     -1.23080207     -2.42564815
O       0.29274611     -1.08951379     -1.86749329
C       3.25953729      0.51122020     -0.17106984
C       4.23950803     -0.63287488      0.06165530
O       3.91309969     -1.69107578      0.60543839
C       5.67442193     -0.40638869     -0.40028813
O       6.54826445     -1.41256089      0.08803572
C       3.10041758      1.35287668      1.11326038
C       1.65335299      1.16691929      1.60506291
C       1.16921499     -0.09038152      0.88883535
H      -2.26477765     -1.67448409     -2.06968683
H      -2.11545541     -2.28519678     -0.41889853
H      -3.69895092     -1.91138434     -1.07591251
H      -2.94142350      1.86345391     -1.36581456
H      -2.88188342      0.60556862     -2.59170937
H      -5.11090557     -0.22795510     -1.90288350
H      -5.15182026      1.51332803     -2.23414384
H      -4.96447141      0.60862377      1.93935926
H      -3.05678984     -0.32561956      2.95199339
H      -2.54456084     -1.67647580      1.95484667
H      -0.59599716     -0.60302357      2.95623941
H      -1.08215117      0.98116380      2.34990551
H      -0.42006033     -1.45162194      0.63971986
H      -1.10420955      1.41331107     -0.10007075
H      -0.67545969      0.62870969     -2.53051279
H       1.64948346      1.21812311     -2.31585860
H       0.93029678      2.02723727     -0.92353459
H       1.71189086     -2.15136464     -0.77953398
H       2.34395415     -2.06571949     -2.88633389
H       3.66506603      1.12626370     -0.98354646
H       5.69988995     -0.41872902     -1.49309473
H       6.02730819      0.55970187     -0.03036129
H       5.98880305     -2.19544733      0.26633216
H       3.28635942      2.41315254      0.90784981
H       3.80806056      1.04510484      1.89174613
H       1.04860130      2.04178397      1.34244418
H       1.61693578      1.05954477      2.69406793
H       1.61014318     -0.94329871      1.42554412
