38
CC(C)C[C@H](N)C(=O)N[C@@H](CCC(=O)O)C(=O)O
C       3.99667829      1.60854219      1.86603553
C       3.45005963      0.47646577      0.99110518
C       4.01208954     -0.86243205      1.46993743
C       1.90807849      0.50646140      1.00697072
C       1.20673221     -0.55576566      0.14380133
N       1.59136471     -0.47190316     -1.28555746
C      -0.33335443     -0.42782549      0.26560439
O      -0.90404882      0.08558004      1.22227501
N      -1.00538078     -0.99495771     -0.79128599
C      -2.45754545     -1.08243782     -0.88505460
C      -3.04547267      0.05777995     -1.72773939
C      -2.84771188      1.45401136     -1.13548561
C      -3.57083550      1.63516879      0.17061074
O      -4.46270530      0.93442015      0.61814936
O      -3.15983424      2.73633673      0.82788923
C      -2.79745798     -2.41986734     -1.54294907
O      -2.06102972     -3.08606143     -2.25650009
O      -4.05778821     -2.82950283     -1.29750652
H       3.69010294      1.48805517      2.91071503
H       3.63424275      2.58076782      1.51560162
H       5.09123242      1.63068511      1.83475840
H       3.80553520      0.65456123     -0.03074523
H       3.74269021     -1.67465850      0.78819389
H       3.63868822     -1.11551860      2.46795641
H       5.10600823     -0.82964133      1.51727503
H       1.56516737      0.39828478      2.04521984
H       1.57055995      1.50241093      0.68728200
H       1.45105616     -1.56000059      0.50830116
H       1.46889049      0.49349284     -1.59576527
H       2.58965611     -0.66230702     -1.37019859
H      -0.42713714     -1.37358617     -1.54216486
H      -2.86675795     -1.09526333      0.13045918
H      -4.11854700     -0.11862427     -1.87851372
H      -2.59138868      0.04138555     -2.72756506
H      -3.24469475      2.19852299     -1.83486080
H      -1.78288473      1.66174613     -0.99215923
H      -3.65171887      2.70105192      1.67453480
H      -4.13253881     -3.68537756     -1.76862478
