19
C=CCSS(=O)CC=C
C       4.45621668     -0.27833729     -0.29213088
C       3.48245659      0.62480567     -0.11325938
C       2.19183120      0.34996750      0.60146077
S       0.81596985      0.53676940     -0.56673456
S      -0.82045879      0.42692444      0.69006133
O      -0.37262286     -0.68045430      1.59822318
C      -2.08941633     -0.23689691     -0.44216785
C      -3.38001990     -0.45931826      0.28969584
C      -4.54403379      0.12533539     -0.02374359
H       5.37136912     -0.01311013     -0.81272064
H       4.36255050     -1.29826751      0.06891955
H       3.63012759      1.63517411     -0.48960545
H       2.08020063      1.06400037      1.42391000
H       2.18136300     -0.66133157      1.02075964
H      -1.72921363     -1.18645922     -0.85059317
H      -2.21210840      0.47558002     -1.26439881
H      -3.34786464     -1.15921013      1.12420512
H      -4.63418285      0.82403084     -0.84989628
H      -5.44216397     -0.08920243      0.54875866
