43
CCC(CO)(CO)COCC(CC)(CO)CO
C      -4.21420469      1.48304123     -0.20931712
C      -3.82228990      0.08824406      0.26517282
C      -2.38904544     -0.37955355     -0.12728874
C      -2.19699272     -0.39687673     -1.66320821
O      -3.24207493     -1.10457072     -2.32632460
C      -2.17009604     -1.81506780      0.41726245
O      -3.10432967     -2.73044048     -0.15833518
C      -1.33223726      0.55410048      0.50564335
O      -0.01776612      0.05642734      0.25176063
C       0.99299198      0.89532354      0.82029047
C       2.40168609      0.40149982      0.39445854
C       2.54639078     -1.10012245      0.78345297
C       3.90320453     -1.73863987      0.50824289
C       2.55779569      0.57160150     -1.13761789
O       2.32745773      1.90909289     -1.57424136
C       3.46286733      1.25055472      1.13184149
O       3.31978390      2.63555221      0.82162429
H      -5.23851174      1.70629539      0.10774359
H      -3.56614448      2.25339386      0.21727400
H      -4.18356921      1.56301433     -1.29941617
H      -4.56969138     -0.61703098     -0.11846515
H      -3.91983522      0.06217374      1.35854414
H      -1.24870322     -0.87206178     -1.93869939
H      -2.17762199      0.61824785     -2.07292793
H      -3.39965266     -1.91424671     -1.79461366
H      -2.29718507     -1.83992654      1.50544733
H      -1.16635336     -2.18517274      0.18232642
H      -2.93372768     -3.59734142      0.25265411
H      -1.40979433      1.56364421      0.08648992
H      -1.48424014      0.61692718      1.59026888
H       0.89668591      0.85539315      1.91261378
H       0.82418379      1.93215641      0.50662351
H       1.79051244     -1.69292973      0.25277101
H       2.32949085     -1.21541585      1.85352747
H       4.16686089     -1.69196715     -0.55165658
H       3.87676740     -2.79600134      0.79302410
H       4.69929562     -1.26649096      1.09021218
H       1.85952352     -0.07499176     -1.67975252
H       3.56896004      0.30364595     -1.46006410
H       2.72477899      2.50102949     -0.90123720
H       3.36953495      1.13287865      2.21715400
H       4.47667246      0.96052739      0.83931922
H       3.98862235      3.11408318      1.34612689
