11
[Mg+2].[Mg+2].[Nb+5].[Nb+5].[O-2].[O-2].[O-2].[O-2].[O-2].[O-2].[O-2]
Mg      0.00000000      0.00000000      0.00000000
Mg      0.00000000      0.00000000      0.00000000
Nb      0.00000000      0.00000000      0.00000000
Nb      0.00000000      0.00000000      0.00000000
O       0.00000000      0.00000000      0.00000000
O       0.00000000      0.00000000      0.00000000
O       0.00000000      0.00000000      0.00000000
O       0.00000000      0.00000000      0.00000000
O       0.00000000      0.00000000      0.00000000
O       0.00000000      0.00000000      0.00000000
O       0.00000000      0.00000000      0.00000000
