20
COCCCCC=O
C      -3.39666565      0.02554820      0.01048993
O      -2.05616932     -0.43693591     -0.08749433
C      -1.20214231      0.54951731     -0.66510429
C       0.22150497      0.00436487     -0.73299918
C       0.80406195     -0.25665192      0.66170804
C       2.23390049     -0.78721068      0.60542978
C       3.26243626      0.26113415      0.25060166
O       3.01917583      1.44877680      0.06489156
H      -3.79591196      0.25669045     -0.98176314
H      -3.45101893      0.90866368      0.65434420
H      -4.00304145     -0.76824850      0.45480964
H      -1.55163149      0.78024538     -1.67794923
H      -1.23102381      1.46585812     -0.06418298
H       0.84686402      0.71850798     -1.27902441
H       0.22166544     -0.93595109     -1.29770573
H       0.76454919      0.66257000      1.25855893
H       0.18304351     -0.99912079      1.17724204
H       2.51437467     -1.17908074      1.58953637
H       2.31789348     -1.60545423     -0.11746756
H       4.29813511     -0.11322307      0.17607871
