35
C#CCOc1cc(-n2nc3n(c2=O)CCCC3)c(Cl)cc1Cl
C       6.56808046      1.66803441      2.25868400
C       5.50426435      1.31170609      1.82942560
C       4.20331025      0.87411158      1.30344751
O       4.39132220     -0.32029427      0.54584571
C       3.28972134     -0.92938300      0.00467440
C       1.98346644     -0.42191769      0.07118162
C       0.87576987     -1.08747572     -0.50365894
N      -0.41424110     -0.49506858     -0.38750343
N      -1.52334398     -1.05854315     -0.97802069
C      -2.50477168     -0.27760737     -0.64940374
N      -2.15493200      0.79341492      0.07824465
C      -0.80895331      0.66758446      0.32212547
O      -0.15275410      1.41113222      1.03628442
C      -3.05620860      1.70653457      0.74091577
C      -4.43106360      1.70688961      0.08241985
C      -4.89969631      0.27179405     -0.16371839
C      -3.92732647     -0.46944598     -1.07862817
C       1.13551611     -2.30720859     -1.16886467
Cl     -0.05903741     -3.30483164     -1.93381880
C       2.44026874     -2.81832532     -1.24366263
C       3.50568383     -2.13658372     -0.66334217
Cl      5.08307095     -2.83092757     -0.79596291
H       7.51587623      1.97661958      2.63545847
H       3.52288104      0.68573689      2.14218474
H       3.79347348      1.66300223      0.66214441
H       1.82491680      0.52347880      0.57386578
H      -3.13417299      1.38323968      1.78579742
H      -2.61373273      2.70833119      0.74281566
H      -4.38217816      2.24027756     -0.87499273
H      -5.14845701      2.23948218      0.71588812
H      -4.97768108     -0.25476736      0.79561501
H      -5.89869763      0.27563340     -0.61334123
H      -4.16005470     -1.53934633     -1.09392475
H      -4.01564639     -0.09607178     -2.10550586
H       2.62532718     -3.75920534     -1.75807692
