20
C=C[NH+]1C=CN(C)C1.[Cl-]
C       3.06614543      0.68206062     -0.22427648
C       1.77733333      0.84588159     -0.53522033
N       0.87537287     -0.21317864     -0.25171952
C       0.14160955     -0.69267164     -1.39994578
C      -1.13441016     -0.86598938     -1.04551753
N      -1.34940711     -0.49805437      0.26084288
C      -2.65009006     -0.18218614      0.82164397
C      -0.18805060      0.20493605      0.76396827
Cl      0.00000000      0.00000000      0.00000000
H       3.47122045     -0.21509370      0.23309743
H       3.78111364      1.47464395     -0.43793841
H       1.43625542      1.77092247     -1.00445956
H       1.33219844     -1.02513374      0.18003342
H       0.56498543     -0.91033210     -2.37483251
H      -1.94871774     -1.22579836     -1.66415721
H      -2.59855779     -0.14994787      1.91481258
H      -2.99992035      0.79049562      0.46056646
H      -3.38616327     -0.94352947      0.54312748
H      -0.32144774      1.29374649      0.73182905
H       0.13053027     -0.14077137      1.75270468
