31
CCCN(C)N=Nc1ccc(C(=O)O)cc1
C      -4.37987663      0.26513352     -1.00492587
C      -3.24666066     -0.51636626     -0.36018867
C      -2.83639352      0.09937092      0.97758860
N      -1.72824368     -0.61104569      1.62248158
C      -2.02178754     -1.87394785      2.27768124
N      -0.45141648     -0.52320518      1.12492745
N      -0.23680968      0.52449979      0.48383230
C       1.08512076      0.53271701      0.01188851
C       1.35023968      0.23557610     -1.32934550
C       2.65957640      0.26748345     -1.81922591
C       3.71973783      0.60715705     -0.96938440
C       5.09206237      0.62847285     -1.53138896
O       5.39481601      0.37443034     -2.68244012
O       6.02323358      0.96829105     -0.62290082
C       3.45995693      0.91698640      0.37113756
C       2.14775392      0.88303884      0.85435517
H      -4.08096374      1.29994840     -1.20023777
H      -4.66161860     -0.19258015     -1.95835293
H      -5.26413820      0.27809777     -0.35977638
H      -3.56459767     -1.55507038     -0.21488198
H      -2.39179813     -0.54172897     -1.04555491
H      -3.68293423      0.08963435      1.67485477
H      -2.55902154      1.15250342      0.85298312
H      -1.15845147     -2.18529539      2.87356989
H      -2.24182485     -2.63470169      1.52405517
H      -2.87988439     -1.74551355      2.94308753
H       0.52949816     -0.02616702     -1.99251764
H       2.84734424      0.02778920     -2.86410618
H       6.86363179      0.94045218     -1.12666406
H       4.26722677      1.18681889      1.04755862
H       1.94622257      1.12722060      1.89472792
