34
CN(C)C(=O)CCCOC(=O)c1ccccc1
C      -5.34932056     -0.25962199      1.16452822
N      -4.44581901      0.20963560      0.12598930
C      -4.97458250      0.19947383     -1.22992613
C      -3.09575693      0.34538183      0.43871793
O      -2.66843316      0.18934490      1.58268930
C      -2.16111978      0.70944873     -0.70651753
C      -0.69183342      0.79417051     -0.29651524
C      -0.07996111     -0.57408461     -0.00093171
O       1.32631393     -0.43281953      0.26357353
C       2.13717366     -0.45291282     -0.82310522
O       1.77640292     -0.56763021     -1.98426053
C       3.56145972     -0.30821063     -0.41548234
C       4.54113209     -0.31873345     -1.41827470
C       5.89098840     -0.18554501     -1.08655912
C       6.26971255     -0.04094710      0.24736014
C       5.30183446     -0.02904928      1.25129111
C       3.95018749     -0.16211354      0.92346514
H      -6.29369321      0.28797147      1.09320544
H      -4.93603801     -0.11072572      2.16554047
H      -5.53177721     -1.32752402      1.01154892
H      -4.37077902      0.80192046     -1.91033927
H      -5.99091538      0.60444440     -1.22579045
H      -4.99281710     -0.83436689     -1.58690170
H      -2.46680388      1.69327529     -1.08125469
H      -2.27076784     -0.02452928     -1.51224879
H      -0.56469959      1.44677785      0.57610059
H      -0.12930640      1.27350259     -1.10702514
H      -0.52274645     -1.01628776      0.89638530
H      -0.25142862     -1.28182059     -0.82094860
H       4.25565942     -0.43100463     -2.46258569
H       6.64563242     -0.19471210     -1.86916423
H       7.32096726      0.06279011      0.50526462
H       5.59887841      0.08409503      2.29118251
H       3.21225645     -0.14959344      1.72200271
