27
CCN(CC)C(=O)c1cccnc1
C      -1.18734177     -1.89998463      1.23472498
C      -0.76026929     -0.44041519      1.20981370
N      -1.04213679      0.20529984     -0.07850110
C      -2.42129975      0.62814479     -0.32912147
C      -2.72812102      1.99509604      0.26550260
C      -0.06171723      0.67648452     -0.95717719
O      -0.29516499      1.43981045     -1.89159120
C       1.33414349      0.25259207     -0.77702732
C       1.72102999     -1.08268682     -0.88110281
C       3.06528323     -1.40889083     -0.72026734
C       3.96762389     -0.38360308     -0.47312083
N       3.62174599      0.92092443     -0.38747534
C       2.30912280      1.21409576     -0.55999795
H      -0.70103864     -2.47284641      0.44027137
H      -0.92323081     -2.35402978      2.19493102
H      -2.26858981     -2.00297764      1.10193422
H       0.30331177     -0.36949426      1.45228655
H      -1.28879016      0.11455636      1.99278192
H      -2.59039570      0.66384019     -1.41166846
H      -3.10602001     -0.12348986      0.07599281
H      -2.60491652      1.99197124      1.35294723
H      -3.76031730      2.28178332      0.04172470
H      -2.06452052      2.76426323     -0.14231869
H       0.99161303     -1.85490622     -1.10322570
H       3.40499815     -2.43605747     -0.79559032
H       5.02651696     -0.58987061     -0.34169743
H       2.05848102      2.27039054     -0.51302793
