29
Nc1ccc(S(=O)(=O)Nc2nnc(S(N)(=O)=O)s2)cc1
N      -5.73235836      0.33384646     -1.35323071
C      -4.52122216     -0.08838223     -0.79517460
C      -4.42736277     -0.32926987      0.57976795
C      -3.19834343     -0.63287826      1.17180626
C      -2.04542671     -0.64585153      0.38562217
S      -0.47209239     -1.03407753      1.11286811
O       0.25299838     -1.84052755      0.15654441
O      -0.70499889     -1.47878223      2.46981496
N       0.20069406      0.51480207      1.23041001
C       1.63855013      0.47145062      1.02015534
N       2.45345206      0.51727786      2.04822576
N       3.77762690      0.53170664      1.64637513
C       3.87492347      0.53713077      0.33133283
S       5.36411331      0.57153652     -0.59884224
N       6.68923782      0.53914991      0.44240509
O       5.42466254     -0.66918837     -1.33830580
O       5.41509667      1.86042713     -1.25259751
S       2.39029445      0.54071160     -0.51238109
C      -2.11322605     -0.36304456     -0.98027068
C      -3.34895526     -0.06106523     -1.55783676
H      -6.55431418     -0.00258455     -0.86090473
H      -5.79964480      0.18569389     -2.35561756
H      -5.31747652     -0.28653632      1.20291722
H      -3.15527520     -0.84431369      2.23762709
H       0.04733090      0.82171354      2.19350270
H       7.27141080      1.36153959      0.27981342
H       7.19773519     -0.33762965      0.31992479
H      -1.21665312     -0.36506765     -1.59576796
H      -3.39077682      0.19221265     -2.61441484
