13
CC(=O)N(C)N=O
C       2.00378739      0.14733887      0.00256471
C       0.70296454     -0.61700024     -0.07889590
O       0.71585690     -1.84149183     -0.22511170
N      -0.46405342      0.12548049      0.01845061
C      -1.76545361     -0.51291776     -0.04797526
N      -0.38921879      1.60513593      0.19445681
O      -1.49866096      2.14298120      0.26695539
H       2.83982827     -0.55334705     -0.08731332
H       2.08775437      0.65384796      0.96785555
H       2.07437490      0.86690435     -0.81757650
H      -2.30864572     -0.31718582      0.88156143
H      -1.67655398     -1.59482593     -0.17774771
H      -2.32197986     -0.10492017     -0.89722410
