28
O=[N+]([O-])c1ccc2c3c(cccc13)-c1ccccc1-2
O       4.68849691      0.37276199     -0.81267169
N       4.18237953     -0.54705970     -0.15630468
O       4.81592025     -1.39768771      0.48441294
C       2.73172334     -0.66333469     -0.15584112
C       2.17870463     -1.95371374     -0.36197452
C       0.78863524     -2.13932157     -0.37714728
C      -0.02240301     -1.03499955     -0.18243914
C       0.54892207      0.21902198      0.02469094
C      -0.45224023      1.16733575      0.20492673
C      -0.11044375      2.48682244      0.43520565
C       1.24978927      2.82387498      0.48164279
C       2.25268383      1.84778054      0.29738464
C       1.91882201      0.48604127      0.05331052
C      -1.73898475      0.49175297      0.10450264
C      -3.03576589      0.96051349      0.20314341
C      -4.07625630      0.03764610      0.05749825
C      -3.81081400     -1.32437713     -0.18157619
C      -2.49836574     -1.79697058     -0.28095760
C      -1.47095306     -0.88315912     -0.13694316
H       2.82973972     -2.81402701     -0.51191216
H       0.36638366     -3.12662693     -0.53592949
H      -0.86958777      3.24849808      0.57927942
H       1.53981871      3.85738678      0.66250101
H       3.29337206      2.16421948      0.34365955
H      -3.24752385      2.00778356      0.38717938
H      -5.10791550      0.37570831      0.12983870
H      -4.64152256     -2.01860217     -0.29039056
H      -2.30261481     -2.84726783     -0.46508897
