28
CCSC(=O)COc1ccc(Cl)cc1C
C       5.78772239      0.02360451     -1.07277772
C       4.31821607     -0.26462255     -1.32446567
S       3.32011494      0.33490020      0.07039866
C       1.71301012     -0.13389574     -0.50707602
O       1.56002533     -0.69975058     -1.58205704
C       0.59560323      0.23944813      0.46089738
O      -0.66595328     -0.15925111     -0.06062812
C      -1.78027670      0.10506167      0.68977070
C      -1.77464026      0.73564951      1.93855947
C      -2.97358895      0.95746567      2.62302644
C      -4.17971678      0.55021435      2.06161903
Cl     -5.65225708      0.82545318      2.90742331
C      -4.20004118     -0.07887220      0.81949752
C      -3.00214249     -0.30663158      0.12369438
C      -3.03710154     -0.98693755     -1.21809100
H       6.38730263     -0.33950044     -1.91415645
H       6.14768320     -0.47982923     -0.16902806
H       5.97577850      1.09798930     -0.97221860
H       4.17052124     -1.34277213     -1.44333042
H       3.99828160      0.23476600     -2.24457540
H       0.78532514     -0.27871182      1.40844165
H       0.61463910      1.32783301      0.59265466
H      -0.85705624      1.06860403      2.41197211
H      -2.95776463      1.44819249      3.59267817
H      -5.14875416     -0.39282965      0.39076175
H      -2.45604318     -1.91428560     -1.18839635
H      -2.62886043     -0.32535625     -1.98892274
H      -4.06002659     -1.24593562     -1.51079038
