61
CC(C)c1cccc(C(C)C)c1N=C=Nc1c(C(C)C)cccc1C(C)C
C       1.53589524      3.25756939      2.29989602
C       2.29738422      1.93020363      2.34818744
C       3.63831363      2.10033336      3.07217124
C       2.47737411      1.33926510      0.95141764
C       3.29791106      2.00586447      0.02323810
C       3.53624100      1.47002126     -1.23732202
C       2.96482578      0.25375295     -1.59485064
C       2.11524826     -0.43624605     -0.71114846
C       1.54297689     -1.79108756     -1.12186848
C       0.90142015     -1.77774961     -2.51389136
C       2.62073429     -2.87495301     -1.03526584
C       1.84779359      0.12381083      0.56795192
N       1.01089508     -0.56292581      1.47520048
C      -0.10259319     -0.18728588      1.42270283
N      -1.21904609      0.18297043      1.41128542
C      -1.90604974     -0.23167366      0.24882481
C      -2.00023507      0.64349815     -0.86766939
C      -1.39973398      2.04698526     -0.83127441
C      -2.49781129      3.09321824     -0.62321129
C      -0.56695905      2.37864984     -2.07467967
C      -2.70435775      0.22062257     -2.00969935
C      -3.29925884     -1.03521559     -2.06116373
C      -3.23154531     -1.88176831     -0.96039959
C      -2.56137213     -1.49264080      0.21380226
C      -2.56948529     -2.42670363      1.42205220
C      -3.99578549     -2.74522758      1.88582554
C      -1.79145227     -3.71464226      1.13874692
H       0.56149355      3.13411514      1.81613771
H       1.35935496      3.63673264      3.31237116
H       2.08693357      4.02717182      1.74861564
H       1.70907353      1.24678219      2.96968427
H       3.47652672      2.42620633      4.10559123
H       4.27843239      2.84617225      2.58936739
H       4.18909840      1.15361951      3.10210582
H       3.77448788      2.94819302      0.28435802
H       4.18575437      1.99158389     -1.93581122
H       3.19922672     -0.15856920     -2.57333239
H       0.74388240     -2.07782405     -0.43213455
H       1.64087113     -1.64947194     -3.31106289
H       0.38123887     -2.72357742     -2.70205933
H       0.16846211     -0.97010741     -2.60221739
H       3.04431082     -2.92628133     -0.02593010
H       3.44421051     -2.68629389     -1.73302110
H       2.19988704     -3.85824656     -1.27168981
H      -0.71188824      2.13137911      0.01498924
H      -2.06471389      4.09538796     -0.53404733
H      -3.20815270      3.10827165     -1.45730155
H      -3.06382389      2.89058469      0.29291134
H      -1.18346578      2.47402958     -2.97440818
H       0.18492404      1.60625882     -2.26291621
H      -0.04183819      3.33048928     -1.93785113
H      -2.80557727      0.87520351     -2.87205248
H      -3.83507967     -1.34668622     -2.95436495
H      -3.72396400     -2.84987752     -1.02008474
H      -2.08169598     -1.94024012      2.27346192
H      -3.97532296     -3.33054043      2.81172186
H      -4.55695243     -1.82517426      2.08374918
H      -4.55339008     -3.32534366      1.14301647
H      -1.75239032     -4.34501563      2.03376010
H      -2.25028180     -4.30396132      0.33753096
H      -0.76095962     -3.49361612      0.84205447
