51
COc1cccc(-c2c(C(=O)N3CCCCC3CO)cc3ccccn23)c1
C      -2.64224894     -4.40531312      1.13577242
O      -2.38821709     -3.01602483      1.32595427
C      -2.13288610     -2.27528142      0.20589230
C      -2.20501348     -2.73194444     -1.10841051
C      -1.92070494     -1.86381428     -2.16656560
C      -1.57520154     -0.53520134     -1.91422855
C      -1.50827871     -0.06259682     -0.60132518
C      -1.12375210      1.32809207     -0.34474161
C       0.08141644      1.96119954     -0.64986164
C       1.22524625      1.32560122     -1.28965880
O       1.36995836      1.39872044     -2.50791147
N       2.11493582      0.61650648     -0.46717373
C       1.86803341      0.38854086      0.95952466
C       3.15615497      0.20145155      1.75349091
C       4.02891558     -0.88900516      1.15057408
C       4.31166905     -0.58312737     -0.31403046
C       3.05264698     -0.29713729     -1.15000888
C       2.35043380     -1.58152690     -1.64861488
O       1.86750501     -2.39270392     -0.58052096
C      -0.03495274      3.32398488     -0.26804262
C      -1.28604838      3.49664468      0.27686872
C      -1.96947960      4.62004610      0.82836504
C      -3.23232670      4.48054858      1.27074597
C      -3.92209184      3.20621553      1.19727898
C      -3.28036244      2.14570874      0.67880580
N      -1.96363789      2.28053693      0.22423072
C      -1.77932624     -0.94244649      0.45313860
H      -3.53076648     -4.56685500      0.51087863
H      -2.84451764     -4.84350681      2.11820712
H      -1.76229519     -4.90979338      0.71596203
H      -2.47961972     -3.75451002     -1.34756656
H      -1.97059651     -2.22348739     -3.19278916
H      -1.35450758      0.12952431     -2.74956776
H       1.22649202     -0.49320527      1.05696244
H       1.32416278      1.23451421      1.39209175
H       2.91913925     -0.04391877      2.79474105
H       3.71342313      1.14865030      1.76428475
H       3.54243423     -1.86581625      1.25655164
H       4.97607526     -0.94820176      1.70179235
H       4.95474797      0.30652333     -0.35161697
H       4.88975180     -1.39943158     -0.76022749
H       3.40039156      0.21782042     -2.05560587
H       3.05640563     -2.18777860     -2.22799257
H       1.50953131     -1.33941850     -2.30951714
H       0.88412381     -2.36981892     -0.62343305
H       0.72020820      4.09074591     -0.38696133
H      -1.46520812      5.57761732      0.88204796
H      -3.76968641      5.32540319      1.69054135
H      -4.94163434      3.13967827      1.55713876
H      -3.74752900      1.17487633      0.58809280
H      -1.71291291     -0.59728557      1.48263035
