23
CCCCCCCBr
C      -3.77122082      0.63748372      0.12139795
C      -2.58800981     -0.28022748     -0.14189665
C      -1.25911411      0.44857277      0.05583395
C      -0.07153024     -0.47800667     -0.20997210
C       1.25841380      0.25126935     -0.01211235
C       2.44618585     -0.67479664     -0.27777457
C       3.76291533      0.05655324     -0.07926282
Br      5.24781450     -1.15369578     -0.42610386
H      -4.71094777      0.09602799     -0.02574307
H      -3.76247649      1.49420582     -0.55998822
H      -3.75391576      1.01498833      1.14878614
H      -2.64427100     -1.14206809      0.53321094
H      -2.65278428     -0.66549407     -1.16614206
H      -1.20973034      1.31204326     -0.61873996
H      -1.20121584      0.83548667      1.08053664
H      -0.12951849     -0.86470080     -1.23472045
H      -0.12100400     -1.34131327      0.46475652
H       1.30786938      1.11458648     -0.68690897
H       1.31638362      0.63793782      1.01269995
H       2.38487783     -1.06532153     -1.30137775
H       2.39336795     -1.54079159      0.39401057
H       3.87464999      0.89481064     -0.77239115
H       3.88326070      0.41244983      0.94759727
