15
CC(C)(C)S
C      -1.00001763     -0.93734531     -0.42772209
C       0.04468826     -0.02929435      0.22730106
C      -0.08009084      1.40026519     -0.30731274
C       1.45418942     -0.57084283     -0.02773410
S      -0.24763236     -0.00756130      2.03870567
H      -0.85124402     -0.97832503     -1.51321041
H      -0.93683539     -1.96572963     -0.05298158
H      -2.02008255     -0.57485449     -0.25444397
H       0.09475502      1.42553972     -1.38938844
H       0.65231848      2.07244057      0.15502212
H      -1.07974787      1.81461345     -0.13136265
H       2.22195670      0.05759134      0.43885472
H       1.66912255     -0.60006470     -1.10249082
H       1.57286139     -1.59181252      0.35389281
H      -1.49424116      0.48537986      1.99287042
