16
CCCCC=O
C      -2.31824725      0.48252311      0.36355489
C      -1.12346656     -0.01422468     -0.43473438
C       0.17110709      0.09252705      0.36977167
C       1.36708569     -0.40668126     -0.43439857
C       2.66318446     -0.31400110      0.33430643
O       2.76813458      0.11188870      1.47948105
H      -3.23325883      0.39709290     -0.23089339
H      -2.19275224      1.53296050      0.64493005
H      -2.45092562     -0.10489429      1.27770860
H      -1.03831661      0.57230410     -1.35693806
H      -1.29507623     -1.05657183     -0.72763163
H       0.33615237      1.13535878      0.66834377
H       0.08012870     -0.48884702      1.29584428
H       1.22696449     -1.45540059     -0.71777844
H       1.48509007      0.18213815     -1.35043187
H       3.55419590     -0.66617252     -0.21369997
