25
NC1C(O)C(O)C(O)C(O)C1O
N      -2.51287379      0.73551488      0.55170863
C      -1.06036105      0.51042877      0.73939857
C      -0.31269243      1.17434197     -0.43572376
O      -0.57183092      2.58706340     -0.43234452
C       1.20460101      0.95673122     -0.33969590
O       1.82340648      1.47948967     -1.52573598
C       1.55135188     -0.53127424     -0.22452543
O       1.14620824     -1.20015165     -1.43909662
C       0.81825892     -1.17139698      0.96297161
O       1.13560549     -2.56400982      1.02960996
C      -0.70998460     -0.98936562      0.84715629
O      -1.24046980     -1.68984615     -0.29338374
H      -3.00554125      0.36781175      1.36910951
H      -2.81454987      0.10455576     -0.20215847
H      -0.77632098      1.01940415      1.66922482
H      -0.68146300      0.80170256     -1.40001864
H      -1.53489363      2.65122559     -0.25281840
H       1.61638270      1.51284641      0.51077319
H       1.43923939      2.37468781     -1.63505194
H       2.63340026     -0.68170725     -0.14152777
H       1.59056175     -0.68956095     -2.15158013
H       1.16854884     -0.71460636      1.89583013
H       0.85270856     -2.94921856      0.17716635
H      -1.19740288     -1.43086495      1.72395462
H      -0.56188932     -1.66380139     -1.00324241
