29
O=C1Nc2ccccc2C(=O)N2CC(O)CC12
O      -1.38220503      2.56414605     -0.13958952
C      -0.61358286      1.61971480      0.04648012
N       0.65501694      1.66186570     -0.46519636
C       1.64462121      0.65967817     -0.43786535
C       2.96712006      1.12601104     -0.53569658
C       4.04939307      0.24452181     -0.50091582
C       3.82650500     -1.12212281     -0.39278883
C       2.51983931     -1.60539982     -0.33883889
C       1.41799574     -0.72834895     -0.36352583
C       0.08172147     -1.38043421     -0.48057144
O      -0.00471643     -2.47994521     -1.02281060
N      -1.01846256     -0.72845611      0.01133077
C      -2.37095077     -1.23467841     -0.17375676
C      -3.27714855     -0.15812243      0.42769620
O      -3.69101868      0.78933174     -0.55375611
C      -2.39481025      0.48630127      1.49536590
C      -0.98631142      0.41222960      0.89777405
H       0.90516413      2.57260696     -0.83348650
H       3.17514549      2.19121082     -0.61721578
H       5.06569900      0.62674117     -0.56332204
H       4.66401048     -1.81555689     -0.37776504
H       2.35738961     -2.68249265     -0.30618912
H      -2.44677767     -2.17466627      0.38383215
H      -2.55506509     -1.42004917     -1.23624316
H      -4.18599872     -0.59452285      0.85198056
H      -3.03550965      1.51188795     -0.61869865
H      -2.70380284      1.50329671      1.75416983
H      -2.42720170     -0.12876443      2.40333331
H      -0.23605928      0.28401645      1.68626949
