30
CCOP(=S)(OCC)Oc1ccc(Cl)cc1Cl
C      -0.66748148      3.41165778      2.09349258
C      -1.18348469      2.55081565      0.95859141
O      -0.31599052      1.43938395      0.80772487
P      -0.78161465      0.22430282     -0.15922797
S      -1.07360163      0.67364565     -2.02447076
O      -2.06951514     -0.33009049      0.65370278
C      -2.64199531     -1.56130074      0.24322406
C      -3.70158550     -1.95859118      1.25041986
O       0.32429174     -0.91031986      0.18714347
C       1.57828767     -0.86984177     -0.35728899
C       2.47734046      0.12298069      0.03025416
C       3.75929662      0.14544996     -0.52217977
C       4.13585827     -0.82924555     -1.44738981
Cl      5.71874987     -0.79598140     -2.12085949
C       3.24594783     -1.83319668     -1.82427507
C       1.96581046     -1.85505022     -1.27185926
Cl      0.87826798     -3.11050608     -1.74073254
H       0.35354225      3.74989862      1.88766673
H      -0.63104633      2.83856992      3.02589707
H      -1.30634820      4.28675204      2.24150806
H      -2.19918745      2.20969776      1.18103543
H      -1.19753789      3.12941474      0.03026752
H      -1.86920185     -2.33404192      0.19112005
H      -3.09460254     -1.44300319     -0.74561495
H      -4.47499471     -1.18664048      1.32143728
H      -4.17197949     -2.90493393      0.96934451
H      -3.26423192     -2.06399592      2.24876806
H       2.19843533      0.87471435      0.76401056
H       4.46081242      0.92141088     -0.22466734
H       3.54775842     -2.59195543     -2.54097286
