12
NC(=O)C(Cl)CCl
N       1.73441245     -0.31287566     -1.15730835
C       0.97462824     -0.22040465     -0.02110827
O       1.49771770     -0.36770255      1.07921929
C      -0.51868605     -0.00618291     -0.23536783
Cl     -0.72757498      1.47717940     -1.22434310
C      -1.23723500      0.10482999      1.10342821
Cl     -3.01227161      0.13968359      0.90558265
H       1.41408736      0.13617249     -2.00821978
H       2.73696959     -0.35024093     -1.01520987
H      -0.90393534     -0.85083507     -0.81730582
H      -1.01401701     -0.75716205      1.74050752
H      -0.94409535      1.00753834      1.65012535
