25
CCCCCCCN
C      -4.11735544      0.36067637      0.44058917
C      -2.88308658     -0.52505002      0.38078111
C      -1.62309141      0.28920247      0.08818502
C      -0.38380883     -0.60544864      0.02891813
C       0.87774858      0.20952830     -0.26436916
C       2.11691128     -0.68897365     -0.32371946
C       3.39437323      0.07274589     -0.68118928
N       3.74610836      1.05557274      0.33645115
H      -4.02242983      1.11307645      1.23003199
H      -5.00649128     -0.24193956      0.65083388
H      -4.27510931      0.87851747     -0.51087842
H      -3.02376109     -1.28575064     -0.39591026
H      -2.77245571     -1.05247133      1.33539753
H      -1.48942315      1.05127627      0.86564477
H      -1.74055345      0.81794195     -0.86559838
H      -0.51815462     -1.36745446     -0.74844418
H      -0.26598858     -1.13367245      0.98291584
H       0.76055989      0.73530087     -1.21976033
H       1.00341143      0.97273986      0.51254027
H       2.24781722     -1.20242925      0.63724953
H       1.95931562     -1.46991191     -1.07804287
H       3.27109045      0.57923503     -1.64450801
H       4.21978526     -0.63956228     -0.78895461
H       4.63611833      1.48923052      0.09492118
H       3.88846964      0.58761999      1.23055269
