10
CC(=O)CCl
C      -1.25606124      0.34054456      0.06070795
C      -0.03138160     -0.42605554      0.49162761
O      -0.06804893     -1.18042796      1.46597051
C       1.22332045     -0.26344971     -0.33077745
Cl      1.78437780      1.41389695     -0.25653766
H      -1.41429606      0.21051562     -1.01291553
H      -2.13292340     -0.04782664      0.58682894
H      -1.14082835      1.39965114      0.30093564
H       1.02403619     -0.53713323     -1.37020602
H       2.01180515     -0.90971518      0.06436602
