11
O=Cc1ccco1
O       2.75161148      0.84009732      0.49107854
C       2.04079739     -0.11356702      0.18233390
C       0.61064862     -0.06722300      0.04634996
C      -0.29608909      0.96160598      0.20690926
C      -1.57540128      0.41718229     -0.05939220
C      -1.37094983     -0.90760952     -0.36542347
O      -0.04848945     -1.21221386     -0.30430949
H       2.49508591     -1.09963189     -0.01430785
H      -0.05138788      1.97868712      0.48326305
H      -2.52858857      0.92666697     -0.03185132
H      -2.02723731     -1.72399439     -0.63465038
