46
CCCC(=O)OCN1C(=O)NC(c2ccccc2)(c2ccccc2)C1=O
C       6.95676311     -1.56881739      0.28603553
C       6.17570899     -0.30740789     -0.04390172
C       4.67901884     -0.58752071     -0.15055730
C       3.89346524      0.66026122     -0.47799452
O       4.36360080      1.77588920     -0.64568009
O       2.57015868      0.35450382     -0.55855382
C       1.75797370      1.48619546     -0.87060836
N       0.39381248      1.04336437     -0.92953486
C      -0.20874383      0.56570927     -2.04268060
O       0.27146243      0.45431879     -3.15807487
N      -1.48917840      0.19247938     -1.73035910
C      -1.78673799      0.30294472     -0.31318549
C      -2.07891246     -1.10877742      0.21865257
C      -1.18667587     -1.81296325      1.04584760
C      -1.48555751     -3.10454418      1.49020280
C      -2.67674250     -3.71890168      1.11472963
C      -3.57375600     -3.04424097      0.29332455
C      -3.27785696     -1.75445308     -0.15226782
C      -2.91634474      1.30358544     -0.02554710
C      -3.32232081      1.53188205      1.30421669
C      -4.34453651      2.43513305      1.60180067
C      -4.97964851      3.13079048      0.57768784
C      -4.59157703      2.92618194     -0.74345410
C      -3.56865882      2.02263638     -1.04422979
C      -0.42497930      0.90709520      0.15562629
O      -0.11776633      1.19765293      1.30760995
H       6.82001249     -2.32903469     -0.48965901
H       6.63342856     -1.99144415      1.24268366
H       8.02573472     -1.34502189      0.35756353
H       6.54612448      0.11145060     -0.98727065
H       6.36102426      0.44623210      0.73087617
H       4.49550731     -1.32387405     -0.94102110
H       4.30803345     -0.98477829      0.80092452
H       1.85350328      2.24326323     -0.08407596
H       2.04569914      1.89785865     -1.84461702
H      -2.05313826     -0.31798153     -2.39391267
H      -0.24350048     -1.37718219      1.36896951
H      -0.78421496     -3.63087614      2.13346593
H      -2.90569924     -4.72238569      1.46387681
H      -4.50626662     -3.52010351      0.00039301
H      -4.00131940     -1.24854347     -0.78997768
H      -2.83726104      1.00557177      2.12633555
H      -4.64097055      2.59647951      2.63527819
H      -5.77385399      3.83558498      0.80970183
H      -5.08392199      3.47411847     -1.54328294
H      -3.29089188      1.89766920     -2.08844075
