26
C=CCOc1ccc(CC(=O)O)cc1Cl
C       5.23365998      0.29762518      0.33313834
C       4.18000386     -0.25991950      0.94443437
C       2.74883113      0.10225595      0.68603705
O       2.06649388     -1.10047007      0.31153059
C       0.72987607     -0.85164727      0.13520605
C       0.29266817     -0.44564908     -1.12615779
C      -1.06530739     -0.21197654     -1.35097813
C      -1.99985578     -0.40290573     -0.32237035
C      -3.46703564     -0.13089102     -0.56033394
C      -3.87215065      1.29666558     -0.28554467
O      -3.16946145      2.22504301      0.07566687
O      -5.19303565      1.49035112     -0.49085142
C      -1.55082424     -0.82875505      0.93814312
C      -0.19183589     -1.06326994      1.16359509
Cl      0.30559154     -1.60935565      2.72330781
H       5.11614336      1.07310636     -0.41713509
H       6.24387640     -0.02082853      0.57209441
H       4.34751209     -1.03672751      1.68725245
H       2.32055699      0.52058520      1.60509735
H       2.67307758      0.84737366     -0.11576485
H       1.00820886     -0.31157668     -1.93301633
H      -1.38806245      0.11928372     -2.33619167
H      -3.71465542     -0.36698441     -1.60204446
H      -4.06607166     -0.79036040      0.07883751
H      -5.32694601      2.43903380     -0.28064228
H      -2.26125769     -0.98000621      1.74793324
