22
O=C(Nc1ncccn1)c1cnccn1
O       0.78421662     -1.70462765     -0.89470131
C       0.14112549     -0.99898275     -0.12830351
N       0.06770279      0.36934985     -0.10163517
C       0.71161719      1.25460839     -0.94421417
N       1.51566492      0.82842613     -1.92398108
C       2.09615017      1.76874246     -2.69027485
C       1.90156100      3.11540463     -2.51189672
C       1.05990430      3.45266737     -1.48116855
N       0.45548905      2.54829271     -0.68681393
C      -0.68707263     -1.64016285      0.93190958
C      -0.72861108     -3.02170136      1.04881817
N      -1.47074144     -3.64479037      2.00113963
C      -2.16398992     -2.82470898      2.82451123
C      -2.12279331     -1.44317354      2.70802546
N      -1.38726492     -0.81095299      1.76348191
H      -0.51497079      0.80282491      0.60248886
H       2.74242691      1.38891220     -3.47602304
H       2.37720045      3.85604929     -3.13837052
H       0.83782997      4.49123315     -1.25406466
H      -0.16856995     -3.67020149      0.38300005
H      -2.75982429     -3.31216691      3.58850040
H      -2.68705052     -0.80504219      3.37957221
