36
O=c1c2cc(Cl)ccc2[nH]c2cc3c(=O)c4cc(Cl)ccc4[nH]c3cc12
O      -2.62088323      2.49915818      0.42463346
C      -2.54907377      1.28832343      0.24282796
C      -3.77760175      0.46026019      0.15901732
C      -5.03625798      1.05802340      0.27614248
C      -6.17361553      0.26046425      0.20223817
Cl     -7.73140828      0.97602029      0.34497752
C      -6.06212773     -1.11849269      0.01921149
C      -4.80039508     -1.71059458     -0.09681875
C      -3.64616561     -0.92400021     -0.04562216
N      -2.37392706     -1.51110549     -0.11081095
C      -1.18734486     -0.76250874     -0.10508834
C       0.05363631     -1.38911032     -0.22258936
C       1.22814456     -0.62681225     -0.16495189
C       2.54907456     -1.28832656     -0.30853297
O       2.62088435     -2.49916421     -0.49031862
C       3.77760298     -0.46026490     -0.22470988
C       5.03626105     -1.05803407     -0.34178590
C       6.17361761     -0.26047207     -0.26789653
Cl      7.73141186     -0.97603422     -0.41058261
C       6.06212741      1.11849279     -0.08493205
C       4.80039346      1.71059902      0.03106136
C       3.64616453      0.92400286     -0.02011938
N       2.37392506      1.51110726      0.04504787
C       1.18734334      0.76251280      0.03932801
C      -0.05363742      1.38911409      0.15683386
C      -1.22814526      0.62681406      0.09920898
H      -5.12122591      2.13135861      0.42652236
H      -6.95396618     -1.73897593     -0.02811469
H      -4.73105140     -2.78790610     -0.22440710
H      -2.31819032     -2.45987758     -0.46267844
H       0.11990215     -2.46579316     -0.36033482
H       5.12123222     -2.13137545     -0.49211942
H       6.95396501      1.73897919     -0.03762496
H       4.73104958      2.78791529      0.15860824
H       2.31818345      2.45990564      0.39685014
H      -0.11990211      2.46579715      0.29457998
