29
CCC(C)OC(=O)Nc1cccc(Cl)c1
C      -4.38509303     -0.47755830      0.89272291
C      -3.01568245     -0.65221014      0.25652920
C      -2.36117602      0.67033042     -0.16556656
C      -3.13281399      1.37462586     -1.27752874
O      -1.04686250      0.39168848     -0.69609089
C      -0.03598431      0.29754668      0.20978469
O      -0.17975684      0.43140385      1.41443455
N       1.11479339      0.03350492     -0.47694610
C       2.41341663     -0.14959052      0.02745336
C       2.73473717     -0.08382837      1.38589115
C       4.05224644     -0.27716405      1.81486598
C       5.05935611     -0.53792107      0.88839544
C       4.74293860     -0.60412040     -0.46518597
Cl      5.98187153     -0.92593435     -1.61620763
C       3.43002053     -0.41200042     -0.89863928
H      -5.11459855     -0.08879719      0.17643204
H      -4.75743074     -1.44211261      1.25268634
H      -4.33703228      0.20626450      1.74596907
H      -3.09281647     -1.32220399     -0.60895118
H      -2.36194655     -1.17092359      0.96815521
H      -2.28685549      1.35660290      0.68727596
H      -3.24955806      0.72108052     -2.14908213
H      -2.58250813      2.25807390     -1.62005509
H      -4.12287516      1.69804289     -0.94475121
H       0.97517697     -0.03249567     -1.47551126
H       1.98050919      0.11697295      2.14148875
H       4.28742847     -0.22308299      2.87524991
H       6.08101978     -0.68733836      1.22668304
H       3.20947576     -0.46885584     -1.96092576
