17
O=[N+]([O-])c1ccc([N+](=O)[O-])c(O)c1
O       3.44931917      1.31903184      0.20437965
N       2.98998095      0.16932713      0.22173889
O       3.67091059     -0.86081568      0.32115250
C       1.53304663      0.01257071      0.11708471
C       0.96941081     -1.27166601      0.13252667
C      -0.41823297     -1.41971063      0.03279352
C      -1.23863459     -0.28381545     -0.08209132
N      -2.68975733     -0.46733433     -0.18507420
O      -3.38785197      0.55406993     -0.28533332
O      -3.13273856     -1.62319403     -0.16624519
C      -0.66731858      0.99835931     -0.09685084
O      -1.36524334      2.17037168     -0.20398804
C       0.71871958      1.14697305      0.00273322
H       1.59248131     -2.16094455      0.22099310
H      -0.84101786     -2.42383380      0.04624431
H      -2.32803339      1.99145645     -0.26970307
H       1.14495955      2.14915438     -0.01036059
