41
CC1CC(OC(=O)c2ccccc2O)CC(C)(C)C1
C      -3.10397312      0.63901635      2.44660787
C      -2.46352431      0.68843807      1.05916219
C      -0.97480342      0.33641294      1.14311448
C      -0.31111079      0.32514848     -0.23624153
O       1.04197868     -0.15857790     -0.11691967
C       1.97511234      0.75338867      0.24512736
O       1.77847514      1.93897996      0.47515699
C       3.32486494      0.14230965      0.34177414
C       3.53627441     -1.21940573      0.07358959
C       4.81815602     -1.76769213      0.17293428
C       5.89610944     -0.96336651      0.53976572
C       5.69663835      0.39027784      0.80826103
C       4.41909846      0.94010913      0.71000019
O       4.32071742      2.27764567      0.99254482
C      -1.04781508     -0.62574972     -1.18590736
C      -2.55654478     -0.32602508     -1.31177679
C      -3.22591364     -1.46076069     -2.11062225
C      -2.78755174      0.99026944     -2.07863351
C      -3.19631437     -0.25843249      0.09470243
H      -4.16131729      0.91950505      2.39596037
H      -2.60516570      1.33517849      3.12913080
H      -3.03993392     -0.36462626      2.88053389
H      -2.55871107      1.71741947      0.69141371
H      -0.45829256      1.04976443      1.79701954
H      -0.84109920     -0.64460666      1.61913357
H      -0.30543208      1.33256214     -0.66967183
H       2.71257739     -1.86821023     -0.21433809
H       4.97543948     -2.82335119     -0.03613181
H       6.89347337     -1.38940098      0.61719973
H       6.53559988      1.01948372      1.09452108
H       3.38277025      2.55217240      0.89101166
H      -0.90283621     -1.65604969     -0.83045379
H      -0.56533266     -0.59582502     -2.17205201
H      -3.09450082     -2.42855182     -1.61364930
H      -2.79725831     -1.54317781     -3.11581439
H      -4.30246141     -1.28677226     -2.21877005
H      -2.34255056      1.85359190     -1.57618043
H      -3.85841634      1.19488161     -2.19134838
H      -2.35381409      0.93874445     -3.08390261
H      -3.20494464     -1.26645950      0.53262250
H      -4.24766744      0.04677505      0.01112587
