28
CC(CC=O)CC(C)(C)C
C       1.70979248     -1.11404776      1.65070050
C       1.03632103     -0.15748887      0.65468888
C       2.08094268      0.35811616     -0.35188519
C       3.00567185      1.41454551      0.21153879
O       2.89849549      1.92420420      1.32147290
C      -0.12011862     -0.89590154     -0.06584898
C      -1.40317181     -0.06560064     -0.36220254
C      -2.36947055     -0.95395807     -1.17285538
C      -2.10678394      0.33508138      0.94767233
C      -1.10718793      1.19843521     -1.18143525
H       0.99147697     -1.45291728      2.40520156
H       2.11000737     -1.99857136      1.14316274
H       2.53406526     -0.62593638      2.17994188
H       0.64009873      0.68253818      1.23394418
H       2.70401363     -0.46631769     -0.71757806
H       1.60161345      0.81288432     -1.22337106
H       3.81072748      1.73558192     -0.47206896
H       0.25991300     -1.32153621     -1.00489369
H      -0.42692287     -1.76062969      0.53932958
H      -3.30285265     -0.42526337     -1.39748118
H      -2.62848886     -1.86442243     -0.62062372
H      -1.92231094     -1.25695581     -2.12637596
H      -2.31193288     -0.54262352      1.57073512
H      -3.06514426      0.82702960      0.74444338
H      -1.50638972      1.03284141      1.53934627
H      -0.60133809      0.95098211     -2.12098103
H      -0.47811388      1.90280978     -0.62763029
H      -2.03291243      1.72712082     -1.43719408
