32
CCCCCOC(=O)CCCC
C       5.05104937      0.40989621      0.33064640
C       4.47019398     -0.43909940     -0.78955756
C       3.14872118     -1.11625976     -0.42043616
C       2.00725532     -0.12817758     -0.18477384
C       0.68882776     -0.85111374      0.07853988
O      -0.34942181      0.10327025      0.35005870
C      -0.99993053      0.59601245     -0.73950766
O      -0.76210218      0.30302435     -1.90307965
C      -2.06741664      1.57394414     -0.31732744
C      -3.24183751      0.89273150      0.37895950
C      -4.05296329      0.00944567     -0.57163138
C      -5.24656320     -0.61539600      0.13383897
H       5.16700350     -0.17560082      1.24812931
H       6.03767870      0.78698263      0.04266393
H       4.41767619      1.27462054      0.54878417
H       5.19793106     -1.21712522     -1.04949570
H       4.33545322      0.17990742     -1.68417769
H       3.29092902     -1.73777229      0.47203629
H       2.87206764     -1.79471418     -1.23701626
H       1.89921597      0.53480589     -1.05144246
H       2.22765894      0.52396179      0.66824259
H       0.41076215     -1.51010930     -0.75270780
H       0.77865277     -1.48207957      0.96956516
H      -2.40714939      2.12171807     -1.20388731
H      -1.60520212      2.31358971      0.34687398
H      -3.89655180      1.66835004      0.79469451
H      -2.88420874      0.29078565      1.22304425
H      -4.40894870      0.60477452     -1.42044501
H      -3.42251154     -0.78997418     -0.97689699
H      -4.92312564     -1.24315503      0.97028840
H      -5.92045578      0.15491042      0.52218182
H      -5.81268789     -1.24215416     -0.56229777
