53
O=C(NCc1ccc(OC(F)(F)F)cc1)C1c2ccccc2C(=O)N1CCc1ccncc1
O      -0.14883493     -3.29112431     -0.99826085
C      -0.12095051     -2.12311859     -0.61402179
N       1.05141363     -1.47229618     -0.29686216
C       2.32104240     -2.15470437     -0.29770550
C       3.44986782     -1.16199539     -0.23754285
C       4.04882692     -0.69424525     -1.41284559
C       5.07269214      0.25504804     -1.35287229
C       5.50663898      0.76460012     -0.12506582
O       6.50432494      1.69161306     -0.21977939
C       6.98072312      2.27339366      0.98070048
F       7.94778143      3.16690232      0.67550673
F       7.51461437      1.34049648      1.79731138
F       5.99372545      2.93043225      1.62830905
C       4.90449992      0.30882476      1.04785913
C       3.88249288     -0.64675968      0.99126032
C      -1.40978942     -1.31224024     -0.35385398
C      -2.01702402     -1.67094306      0.97419686
C      -2.47801760     -2.89264028      1.43728436
C      -2.99990904     -2.95413734      2.73418870
C      -3.05970209     -1.80653052      3.54646155
C      -2.59812012     -0.57747681      3.07398558
C      -2.08385164     -0.54340112      1.79183405
C      -1.55423101      0.60267368      1.04694809
O      -1.48682929      1.73971668      1.47225724
N      -1.17357741      0.13262164     -0.20063616
C      -0.86133060      1.01201058     -1.32127793
C      -1.97965121      1.12293387     -2.37128725
C      -3.34102799      1.52283760     -1.85403375
C      -3.51429979      2.61384228     -0.99726954
C      -4.79381751      2.92796389     -0.56235387
N      -5.90272948      2.25440335     -0.93589959
C      -5.72009252      1.21667407     -1.77869411
C      -4.48098146      0.81962887     -2.26032851
H       0.97406211     -0.58757156      0.19507329
H       2.34960916     -2.82558989      0.56908062
H       2.39818925     -2.78474143     -1.19157221
H       3.71764604     -1.06212076     -2.38345454
H       5.53226974      0.60151753     -2.27541617
H       5.19161842      0.67596304      2.02899520
H       3.41837472     -0.97940911      1.91845968
H      -2.12443237     -1.47336776     -1.16757318
H      -2.43204657     -3.78469509      0.81754170
H      -3.36635312     -3.90283856      3.12171690
H      -3.47381270     -1.87874611      4.54957744
H      -2.64505221      0.32018106      3.68151500
H       0.04701348      0.63571922     -1.80338875
H      -0.62251306      2.00599137     -0.92633543
H      -2.06039305      0.15826708     -2.88946273
H      -1.67835946      1.85249485     -3.13430763
H      -2.67491312      3.20815477     -0.64748503
H      -4.96099912      3.75687894      0.11994003
H      -6.62646232      0.69213467     -2.06940455
H      -4.41732222     -0.02322631     -2.94067211
