87
CCCCCCCCCCCCCCC(CO)CCCCCCCCCCCC
C     -11.75915649     -0.86472981     -0.86104318
C     -10.33853428     -0.42153984     -1.17639784
C      -9.58491794     -0.02283766      0.09301368
C      -8.18358130      0.53251471     -0.18051151
C      -7.23088484     -0.50142738     -0.78641280
C      -5.77587520     -0.02216670     -0.84155497
C      -5.56997290      1.17951917     -1.76803300
C      -4.09377713      1.52160657     -1.99465848
C      -3.38257118      2.00847777     -0.72920677
C      -1.93424763      2.40349893     -1.02802565
C      -1.19580330      2.98561531      0.18158044
C      -1.11992944      2.08528636      1.41896784
C      -0.46123953      0.72867457      1.14968120
C      -0.33582289     -0.08693716      2.44265060
C       0.36801357     -1.46005318      2.33070064
C       0.01527369     -2.25168929      1.06504768
O      -1.39227814     -2.44301829      0.99445052
C       1.89367887     -1.40412984      2.56557372
C       2.69603406     -0.56069111      1.57362983
C       4.21336493     -0.66238317      1.77597159
C       4.82529382     -2.05077701      1.55710633
C       4.53045647     -2.70014048      0.20392412
C       4.95910371     -1.91546935     -1.04113453
C       6.47419615     -1.82558486     -1.25771242
C       7.11046388     -0.57030193     -0.65500767
C       8.60254071     -0.49425175     -0.99056135
C       9.32198011      0.67332832     -0.30786631
C       8.79369558      2.06916619     -0.64677685
C       8.86755353      2.40422758     -2.12816524
H     -12.32583168     -0.05842721     -0.38457000
H     -11.75990513     -1.72918255     -0.18946792
H     -12.28070998     -1.14809084     -1.78059208
H      -9.82091420     -1.24185156     -1.68509430
H     -10.37218498      0.42513081     -1.87180251
H      -9.51359130     -0.88450115      0.76793671
H     -10.15940002      0.74622028      0.62435329
H      -8.26565555      1.40302586     -0.84145570
H      -7.76766163      0.89186732      0.76892717
H      -7.26580144     -1.41870683     -0.18587705
H      -7.55805958     -0.77040809     -1.79722083
H      -5.15407341     -0.85602750     -1.18998864
H      -5.44160611      0.22053019      0.17342890
H      -6.02375242      0.96234177     -2.74284482
H      -6.08458701      2.05992222     -1.36646599
H      -4.03770790      2.30493553     -2.76082985
H      -3.57197599      0.64599954     -2.39995836
H      -3.92003959      2.86841805     -0.31241418
H      -3.39710360      1.21583392      0.02508058
H      -1.92424124      3.15715432     -1.82561435
H      -1.38681021      1.53806546     -1.41922128
H      -1.67739208      3.92829896      0.47027945
H      -0.17605650      3.24456143     -0.12954624
H      -2.12381168      1.93488670      1.83270837
H      -0.54722306      2.61686984      2.18942211
H       0.51752493      0.88910015      0.69096500
H      -1.06866382      0.17315733      0.42844465
H      -1.35277024     -0.26276175      2.81991033
H       0.16615952      0.51205945      3.21282430
H      -0.02859429     -2.04435783      3.17497249
H       0.34393336     -1.74022193      0.15562597
H       0.48712092     -3.23988085      1.08974550
H      -1.57143309     -2.94320579      0.18020535
H       2.26547546     -2.43515118      2.56222169
H       2.07880530     -1.02085057      3.57750171
H       2.42576908      0.49298241      1.70564255
H       2.44213714     -0.82537177      0.54287477
H       4.69686340      0.05634662      1.10433834
H       4.45906959     -0.33381164      2.79367220
H       5.90903244     -1.98830105      1.70373492
H       4.47261119     -2.72661839      2.34528796
H       5.00944731     -3.68732285      0.18284555
H       3.45358737     -2.89645011      0.13238872
H       4.50033472     -0.92108714     -1.05914518
H       4.54168146     -2.45198664     -1.90374343
H       6.65688497     -1.80674355     -2.34028621
H       6.96959457     -2.72574159     -0.87507378
H       6.59528268      0.31425861     -1.04619886
H       6.99002244     -0.56282461      0.43130027
H       8.73758012     -0.43497508     -2.07670268
H       9.08909364     -1.42434883     -0.67030690
H      10.38627006      0.62389258     -0.57022897
H       9.26703504      0.53653492      0.77935508
H       7.76186267      2.18217955     -0.29659179
H       9.38900770      2.80561942     -0.09339488
H       9.88607884      2.27973677     -2.50954687
H       8.56895336      3.44468941     -2.29290193
H       8.19728154      1.77080280     -2.71658781
