43
CN1CCC(=C2c3ccccc3C=Cc3ccccc32)CC1
C       4.42611998     -0.12166087      2.02597382
N       3.56286522      0.10005068      0.86711947
C       2.62374721      1.20570032      1.12689415
C       1.70240071      1.47560738     -0.07501982
C       0.93523592      0.22451982     -0.48415333
C      -0.41784684      0.13998441     -0.59229158
C      -1.28650764      1.30086236     -0.27013285
C      -1.29313701      2.42751447     -1.10915468
C      -2.10937571      3.52026933     -0.81989434
C      -2.93270410      3.49220891      0.30219862
C      -2.95191318      2.36586726      1.12854883
C      -2.14876576      1.25041806      0.84360248
C      -2.22236594      0.09263039      1.75662277
C      -2.11490798     -1.20718323      1.42786803
C      -1.89912506     -1.76918667      0.07987404
C      -2.50867405     -2.99573337     -0.22753545
C      -2.34804831     -3.57979969     -1.48647740
C      -1.57467387     -2.94696944     -2.45558611
C      -0.94887113     -1.73605378     -2.16218735
C      -1.08355509     -1.15370544     -0.89093692
C       1.90181762     -0.93589045     -0.68494720
C       2.81668945     -1.12715011      0.53683944
H       3.85747080     -0.39532159      2.92211167
H       5.00824014      0.77935074      2.24903914
H       5.14867111     -0.91898796      1.81951055
H       3.19010293      2.12263903      1.33169335
H       2.01224913      0.99611933      2.01533373
H       1.05082792      2.31065692      0.19397487
H       2.30156295      1.81205302     -0.93122157
H      -0.65577883      2.45416694     -1.98988048
H      -2.10283826      4.39055496     -1.47066067
H      -3.56936283      4.34303406      0.53076125
H      -3.61557241      2.35963119      1.99027779
H      -2.40852067      0.34165100      2.79926877
H      -2.21951506     -1.94456181      2.22103115
H      -3.13120242     -3.49985811      0.50824857
H      -2.83629956     -4.52437243     -1.71202339
H      -1.45923586     -3.39374365     -3.43945754
H      -0.34990272     -1.24472978     -2.92537282
H       1.39804707     -1.88821163     -0.86800823
H       2.51182827     -0.73083288     -1.57439036
H       3.52545950     -1.93206285      0.30610002
H       2.21536437     -1.45947484      1.39424669
