9
FC(F)=C(F)C(F)(F)F
F       2.57463259      0.20641613      0.26496634
C       1.31991529     -0.28867356      0.31962478
F       1.11394841     -1.50734181      0.85848503
C       0.30718890      0.43417318     -0.15918361
F       0.59252450      1.65086686     -0.68599154
C      -1.10505897     -0.01680426     -0.14717250
F      -1.89293742      0.83946669      0.55434250
F      -1.29196139     -1.24522788      0.39890880
F      -1.61825191     -0.07287535     -1.40397980
