20
CCCC(C)C(=O)O
C       2.75201907     -0.77509132     -0.26511011
C       1.35533339     -0.73042404      0.33524826
C       0.52170310      0.40181920     -0.27294809
C      -0.88263367      0.49347597      0.34420999
C      -1.60074331      1.75628020     -0.12345169
C      -1.72949313     -0.70270498     -0.02895622
O      -1.69700230     -1.33138803     -1.07314642
O      -2.60790980     -1.03118697      0.93877147
H       3.33133587     -1.58828001      0.18327357
H       2.70896973     -0.94422088     -1.34578679
H       3.28717675      0.16262593     -0.08455123
H       1.43579262     -0.59103506      1.41956218
H       0.86693933     -1.69669288      0.16778772
H       0.45093742      0.25989644     -1.35891866
H       1.04807320      1.35123378     -0.11139960
H      -0.78237640      0.52114866      1.43653833
H      -1.04288842      2.65295739      0.16560360
H      -2.60079091      1.82431486      0.31871677
H      -1.72176769      1.76504734     -1.21251994
H      -3.09267485     -1.79777560      0.56707685
