41
Cc1ccc(OP(=O)(Oc2ccccc2)Oc2ccccc2)cc1
C       6.24146808     -0.30339383     -0.21733830
C       4.75372984     -0.45239818     -0.09836000
C       3.89689222      0.34881341     -0.86236735
C       2.50899101      0.23526969     -0.73312243
C       1.96899964     -0.67409675      0.17188611
O       0.63161988     -0.85938705      0.37406615
P      -0.53499148      0.01751625     -0.31421617
O      -0.54140129      0.00779663     -1.81791631
O      -0.35101575      1.47071051      0.36274720
C      -1.18333279      2.53475944      0.16462056
C      -0.90779766      3.67107584      0.92732717
C      -1.70069858      4.81216297      0.80152235
C      -2.77081777      4.81870099     -0.09061500
C      -3.04460705      3.68555733     -0.85573705
C      -2.25122624      2.54205507     -0.73008734
O      -1.87755962     -0.54521122      0.38207252
C      -2.38519049     -1.79923128      0.19770902
C      -3.49879353     -2.12349636      0.97462571
C      -4.09204500     -3.38139547      0.86350592
C      -3.57240309     -4.31740422     -0.02810358
C      -2.46241412     -3.99324882     -0.80735341
C      -1.86732006     -2.73372762     -0.69643541
C       2.81571275     -1.46862431      0.94466224
C       4.20143767     -1.35507909      0.81625321
H       6.59838746      0.45765476      0.48331711
H       6.74756121     -1.24992859     -0.00017943
H       6.52449209     -0.01002401     -1.23372402
H       4.30489313      1.06761113     -1.57022632
H       1.88418540      0.86763491     -1.35677823
H      -0.07307363      3.66946912      1.62374360
H      -1.48267306      5.69414589      1.39788991
H      -3.38976211      5.70646409     -0.19244008
H      -3.87657819      3.69190569     -1.55587173
H      -2.49036067      1.68239814     -1.34898405
H      -3.90713414     -1.39516299      1.67071451
H      -4.95842720     -3.62946240      1.47090064
H      -4.03293142     -5.29787814     -0.11847751
H      -2.05951175     -4.72165259     -1.50700003
H      -1.00985408     -2.51534122     -1.32596639
H       2.39802158     -2.17828410      1.65435834
H       4.84552883     -1.97727363      1.43341374
