30
CCc1ccc2c(c1)C(=O)c1ccccc1C2=O
C       4.49809272      1.45976740      0.44336743
C       3.99965406      0.04688023      0.70522803
C       2.61854077     -0.17348961      0.14096741
C       2.45187831     -0.64160633     -1.16879700
C       1.17228042     -0.82979569     -1.69615322
C       0.04378033     -0.54613342     -0.91818019
C       0.19846377     -0.07383623      0.38308067
C       1.48301996      0.11454259      0.91176562
C      -0.98426915      0.23303046      1.21271635
O      -0.84935330      0.65025220      2.35722794
C      -2.33250497      0.03059813      0.64540664
C      -3.46188872      0.31718414      1.42333476
C      -4.74033795      0.12884889      0.89536968
C      -4.89471745     -0.34479503     -0.40713352
C      -3.77094885     -0.63101042     -1.18420621
C      -2.48686343     -0.44280932     -0.65648900
C      -1.30421444     -0.74812497     -1.48620271
O      -1.43995785     -1.16362265     -2.63122364
H       4.54845281      1.67061046     -0.63026548
H       3.83889249      2.20504778      0.90128773
H       5.50080566      1.59099046      0.86222432
H       4.69664201     -0.67895403      0.26890288
H       3.99270149     -0.15035786      1.78414968
H       3.31930081     -0.86248155     -1.78848173
H       1.06018128     -1.19638266     -2.71518837
H       1.59824913      0.48839703      1.92871341
H      -3.34950509      0.68730557      2.44106641
H      -5.61592164      0.35199345      1.50115496
H      -5.89089360     -0.49163733     -0.81882053
H      -3.89955957     -1.00041169     -2.20027625
