38
CCNc1nc(NC(C)C(C)C)nc(SC)n1
C       5.64052000     -2.42760394     -0.18954365
C       4.72297037     -1.22693534     -0.01902449
N       3.35390613     -1.68636283      0.13215213
C       2.40379227     -0.67568573      0.22720358
N       1.21276386     -0.96583597     -0.27790705
C       0.29040004     -0.01911327     -0.18169940
N      -0.94733914     -0.33989917     -0.71684686
C      -2.13512523      0.23934565     -0.09054360
C      -2.41311326     -0.44613215      1.25130777
C      -3.31559707      0.14411252     -1.09804025
C      -4.49181565      1.02798224     -0.66922218
C      -3.81075735     -1.28480987     -1.34484982
N       0.49458085      1.16535299      0.36988503
C       1.71994108      1.36275363      0.83840975
S       2.10554199      2.92482875      1.60139550
C       0.60302860      3.85567165      1.21486599
N       2.70870302      0.47929748      0.79418616
H       5.36912989     -3.00685568     -1.07856361
H       5.57866075     -3.09496399      0.67666319
H       6.67948721     -2.10133565     -0.29782484
H       5.04537059     -0.66476861      0.86550201
H       4.81811021     -0.57607633     -0.89670051
H       3.02334380     -2.32268501     -0.58549914
H      -0.96202150     -1.34626104     -0.84392142
H      -1.96867860      1.30872115      0.09571380
H      -2.50456327     -1.53192307      1.14187056
H      -3.32911835     -0.06696994      1.71318916
H      -1.59574977     -0.26502818      1.95821368
H      -2.96005210      0.53412831     -2.06222908
H      -5.26381755      1.04331977     -1.44637468
H      -4.16593612      2.06069380     -0.50703719
H      -4.95770673      0.66731246      0.25302055
H      -2.99859685     -1.93956590     -1.67461248
H      -4.26021015     -1.71987301     -0.44652141
H      -4.57511236     -1.29251065     -2.12993572
H       0.44974896      3.91628001      0.13368916
H       0.70660567      4.87282513      1.60278799
H      -0.27129422      3.39856981      1.68684140
