31
O=C1c2c(Cl)c(Cl)c(Cl)c(Cl)c2C2=Nc3cccc4cccc(c34)N12
O       1.40602566     -2.82677302      0.32540464
C       1.41955285     -1.62371805      0.15286537
C       2.65311512     -0.83882004     -0.03889027
C       3.98062509     -1.23895222     -0.06763057
Cl      4.40873548     -2.89965112      0.14164951
C       4.96135695     -0.24805291     -0.27242764
Cl      6.64434228     -0.69858949     -0.31696069
C       4.58850751      1.11178063     -0.44234629
Cl      5.81538307      2.32348345     -0.69456252
C       3.23229335      1.49039251     -0.40867727
Cl      2.75124879      3.13711759     -0.61252783
C       2.28978675      0.49372834     -0.20552997
C       0.83546006      0.54607367     -0.11896093
N       0.09935368      1.60054986     -0.22181619
C      -1.29439825      1.41126757     -0.10468815
C      -2.13256779      2.52198110     -0.20897623
C      -3.51504072      2.37649850     -0.09883145
C      -4.07033307      1.11389891      0.11722930
C      -3.24807346     -0.01868226      0.22566296
C      -3.77309953     -1.30105655      0.44258099
C      -2.92607518     -2.40606295      0.54548412
C      -1.54334466     -2.24859410      0.43360602
C      -0.99997556     -0.97998676      0.21746290
C      -1.84819228      0.13670205      0.11297821
N       0.38374776     -0.73116661      0.09248519
H      -1.69971506      3.50469179     -0.37718290
H      -4.15941550      3.24808213     -0.18153471
H      -5.15115215      1.02062544      0.20042524
H      -4.84721619     -1.44930333      0.53317441
H      -3.34460624     -3.39588402      0.71378261
H      -0.91632875     -3.13158012      0.51904595
