44
CC(=O)OC1c2ccccc2N(C(N)=O)c2ccccc2C1OC(C)=O
C       3.42870786      0.29225633      2.40524222
C       2.95616285      0.16130987      0.98992105
O       3.62101338      0.46847308      0.01155252
O       1.69758967     -0.34206354      0.97066805
C       1.06628563     -0.50943711     -0.32876553
C       0.22232211     -1.77368989     -0.22288636
C       0.97422525     -2.97108392     -0.08073636
C       0.37017511     -4.22258564     -0.03389185
C      -1.00598559     -4.31005658     -0.12823333
C      -1.76703584     -3.14637997     -0.26420742
C      -1.18809761     -1.85740711     -0.31393318
N      -2.07300228     -0.71702849     -0.42338213
C      -3.28843327     -0.79833234     -1.12605473
N      -4.04857939      0.33970205     -1.14162007
O      -3.70815354     -1.75117452     -1.77845693
C      -1.80914653      0.35726265      0.48275485
C      -2.73906099      0.66190508      1.49098805
C      -2.52878490      1.73621096      2.35450523
C      -1.38950873      2.52122190      2.21613069
C      -0.46044954      2.23066236      1.21703573
C      -0.66191568      1.15011752      0.33968299
C       0.33107687      0.78537332     -0.74371647
O       1.24988150      1.88029649     -0.94890010
C       1.91605837      1.85748269     -2.13530868
C       2.86529111      3.01264252     -2.21800349
O       1.74755562      1.03174072     -3.02102758
H       4.44377898      0.69950634      2.41239425
H       2.77505949      0.97683401      2.95173545
H       3.44406190     -0.69034303      2.88338516
H       1.84099018     -0.71849330     -1.07870582
H       2.06147537     -2.92301422     -0.01869307
H       0.97283042     -5.12041383      0.07057327
H      -1.49941188     -5.27768041     -0.09142063
H      -2.84717805     -3.27530237     -0.29288981
H      -4.82036967      0.28454304     -1.79406444
H      -3.55691109      1.22243605     -1.14168832
H      -3.63087863      0.05095007      1.61670120
H      -3.25289821      1.95610098      3.13483133
H      -1.22019335      3.35807019      2.88939861
H       0.42766344      2.85374914      1.13444337
H      -0.22839072      0.64027124     -1.67817486
H       3.48963570      2.90476105     -3.10947757
H       3.51915257      3.02355182     -1.34229134
H       2.30339209      3.94705480     -2.28809172
