20
Cc1ccc(S(=O)(=O)N(Cl)Cl)cc1
C      -3.33859809      0.51800420      0.04371906
C      -1.87063946      0.21163827     -0.02502308
C      -1.10791334      0.64847606     -1.11699921
C       0.24973630      0.33693297     -1.20141913
C       0.84604609     -0.41717269     -0.18687020
S       2.57693182     -0.82244867     -0.31085292
O       2.87192271     -1.82123832      0.70022132
O       2.83122844     -1.09689415     -1.71348938
N       3.31666010      0.66791240      0.12220255
Cl      2.97867972      1.22391638      1.72927572
Cl      5.00895089      0.73580521     -0.24898351
C       0.09263429     -0.88560042      0.89225658
C      -1.26452399     -0.56901381      0.96922971
H      -3.56006608      1.47695166     -0.43645265
H      -3.67379252      0.59087368      1.08368486
H      -3.90884476     -0.26969287     -0.45810918
H      -1.57147709      1.23026484     -1.91156846
H       0.82754225      0.67590862     -2.05865340
H       0.54588574     -1.49558768      1.67073715
H      -1.85036304     -0.93903570      1.80868895
