29
CCCCC/C=C/CCC=O
C       5.30278132      0.08403231      0.05922763
C       3.93781123      0.72938708     -0.11930961
C       2.82627355     -0.31819684     -0.17702797
C       1.45443389      0.33507312     -0.35656684
C       0.34304857     -0.71477409     -0.41465893
C      -1.00270082     -0.07386628     -0.60384052
C      -2.00528233     -0.15971714      0.28436620
C      -3.34847263      0.48876250      0.09497095
C      -4.45313361     -0.55604307     -0.00876056
C      -5.81355662      0.06911229     -0.18809259
O      -6.03003949      1.27578475     -0.21939966
H       5.34597286     -0.49154138      0.98938108
H       5.53004294     -0.58978673     -0.77303170
H       6.08255423      0.85108426      0.09791160
H       3.93855440      1.32293683     -1.04093681
H       3.75546276      1.42060186      0.71175733
H       2.83278849     -0.91172890      0.74533509
H       3.01551889     -1.00933976     -1.00743695
H       1.45123602      0.93155098     -1.27775797
H       1.26687918      1.02735058      0.47407351
H       0.35913079     -1.32022623      0.49980258
H       0.52132995     -1.39952932     -1.25239066
H      -1.14707692      0.48294584     -1.52817021
H      -1.85775761     -0.71073894      1.21136800
H      -3.35150148      1.12413459     -0.79961509
H      -3.53764636      1.15353648      0.94676881
H      -4.27994788     -1.21744978     -0.86526542
H      -4.49142949     -1.17400206      0.89542830
H      -6.64527382     -0.64935297     -0.28954327
