31
Nc1nc(Cl)nc2c1ncn2[C@@H]1O[C@H](CO)[C@@H](O)[C@@H]1F
N       5.10701228     -1.44045597      0.17394843
C       4.11656047     -0.47135826      0.09257486
N       4.47470561      0.78215940     -0.26039521
C       3.50509252      1.71619209     -0.32564100
Cl      4.02404216      3.28441481     -0.77490871
N       2.18012259      1.59271499     -0.10084874
C       1.88256404      0.32631940      0.22999710
C       2.75925433     -0.74013596      0.34415196
N       2.08320830     -1.89254753      0.68399587
C       0.82116798     -1.52592223      0.78586870
N       0.65101557     -0.19445172      0.51907647
C      -0.58151110      0.56270546      0.52548245
O      -1.64371185     -0.22328434      1.11706093
C      -2.85028622      0.03559348      0.36512453
C      -3.29419083     -1.26240722     -0.31412866
O      -4.50628987     -1.05284171     -1.02594502
C      -2.53691166      1.15825151     -0.63070887
O      -2.76501469      2.44137708     -0.03550034
C      -1.05433064      0.98174298     -0.85839155
F      -0.86952504     -0.02914638     -1.75418590
H       4.75806673     -2.39105940      0.11718602
H       5.93315396     -1.20600158     -0.36031276
H      -0.00133617     -2.17952737      1.04936990
H      -0.43354683      1.43133012      1.17878262
H      -3.62365263      0.35745640      1.07218489
H      -2.53222721     -1.63742929     -1.00483877
H      -3.45716305     -2.04055669      0.43970980
H      -4.75573650     -1.90897715     -1.41896402
H      -3.11812428      1.10228753     -1.55541785
H      -3.73075998      2.55027876      0.04974522
H      -0.54164799      1.87327877     -1.23029876
