16
CS(=O)(=O)NS(C)(=O)=O
C      -2.25647851     -0.63848395     -0.04936973
S      -1.09437438      0.43200931     -0.87408612
O      -0.34701404     -0.33115945     -1.84732622
O      -1.81059135      1.62611934     -1.27316080
N      -0.08239467      0.91492396      0.31375280
S       1.05744361     -0.02192889      1.01471419
C       2.32883120     -0.16492708     -0.22614191
O       0.49635772     -1.32718790      1.27863113
O       1.59417990      0.77693555      2.09723674
H      -2.65140695     -0.12353127      0.82824754
H      -1.77080796     -1.57482216      0.22237550
H      -3.06981213     -0.84439923     -0.74942144
H      -0.16832050      1.86906649      0.64095403
H       2.58752572      0.83290463     -0.58498025
H       3.20180095     -0.62123965      0.24681381
H       1.98506140     -0.80427971     -1.03823928
