13
CC1OC1C
C       1.96848194     -0.03013790      0.10879881
C       0.56130623     -0.50949037      0.09899718
O      -0.02265765     -0.60789248     -1.20739088
C      -0.56570617      0.39144750     -0.33345447
C      -1.96457369      0.13499417      0.09946577
H       2.65115682     -0.86040883     -0.09649407
H       2.21781202      0.38172758      1.09141800
H       2.14338195      0.74821802     -0.64121654
H       0.37283785     -1.30770933      0.80375700
H      -0.36827799      1.43006369     -0.56073999
H      -2.15009394     -0.92833909      0.28346555
H      -2.66552323      0.47496876     -0.66905660
H      -2.17814414      0.68255827      1.02245024
