31
NNP(=O)(Oc1ccccc1)Oc1ccccc1
N       0.22706441     -2.94965510      2.54314425
N       0.70834182     -2.23602990      1.34357146
P      -0.05527249     -0.79891396      0.96600513
O      -0.16424057      0.15783567      2.12321240
O      -1.49438089     -1.23259722      0.37206435
C      -2.42350554     -0.37490421     -0.14458070
C      -3.53569608     -0.97245751     -0.74072790
C      -4.54219998     -0.18530150     -1.30131658
C      -4.43870027      1.20354412     -1.26409462
C      -3.33062617      1.80177233     -0.66531319
C      -2.32203728      1.01387894     -0.10404823
O       0.69464164     -0.19757892     -0.33015456
C       1.97834107      0.26686937     -0.34833389
C       2.57260347      0.36354988     -1.60745785
C       3.88433965      0.82178933     -1.73227504
C       4.60147016      1.19139364     -0.59636462
C       4.00397934      1.10739479      0.66074103
C       2.69047869      0.64766034      0.78678333
H       0.13826966     -2.29672221      3.33299548
H      -0.72499648     -3.29760397      2.38364069
H       1.71615065     -2.09527308      1.40448706
H      -3.61935807     -2.05572162     -0.77194651
H      -5.40514319     -0.65541828     -1.76535780
H      -5.22141133      1.82008647     -1.69853750
H      -3.25147043      2.88567208     -0.63133442
H      -1.47910202      1.51535274      0.36155348
H       2.01494011      0.07780924     -2.49598903
H       4.34439600      0.89232346     -2.71449613
H       5.62268791      1.55209189     -0.69071590
H       4.55942408      1.40920624      1.54566018
H       2.25101214      0.61994696      1.77918563
