21
CCC(C)(C)OC
C      -1.68526339     -1.70169879      0.11527864
C      -1.10607886     -0.64882014     -0.82455480
C       0.01981165      0.21897528     -0.20667873
C      -0.50737810      0.99712578      1.00762580
C       0.50865285      1.19811080     -1.28654090
O       1.06528082     -0.69480643      0.16285401
C       2.22149975     -0.14301857      0.77338012
H      -2.19467222     -1.24193488      0.96705025
H      -2.42174462     -2.31147931     -0.41841601
H      -0.90872957     -2.37257582      0.49480477
H      -1.92279043     -0.00943220     -1.18203822
H      -0.70747949     -1.17872558     -1.69979819
H      -1.43411716      1.52979682      0.76902949
H      -0.69042987      0.33276880      1.85871287
H       0.21890454      1.74330787      1.34867551
H       1.25285140      1.89752938     -0.89133993
H       0.98764966      0.66015058     -2.11233057
H      -0.31755028      1.79352351     -1.69004069
H       1.97879142      0.33755628      1.72429862
H       2.91303447     -0.96437898      0.98280054
H       2.72975743      0.55802560      0.10722742
