17
CCC(C)C(=O)O
C       1.90593482     -0.16632178      1.01391107
C       0.57069785     -0.83018140      0.70170375
C      -0.21585160     -0.08966518     -0.38950293
C      -1.43695496     -0.89640219     -0.82182614
C      -0.68437616      1.26590755      0.09036262
O      -1.01557495      1.57251299      1.22302217
O      -0.73965693      2.17168102     -0.90593188
H       2.53158101     -0.10462011      0.11777181
H       2.44855252     -0.74881920      1.76532552
H       1.76929754      0.84490310      1.40875310
H      -0.01918141     -0.89686219      1.62403882
H       0.76752741     -1.85859479      0.37482825
H       0.44259677      0.05711562     -1.25494913
H      -1.13997363     -1.87271621     -1.21856993
H      -2.12183785     -1.06221112      0.01736626
H      -1.99649670     -0.37090138     -1.60349110
H      -1.06628374      2.98517528     -0.46734785
