24
CN(C)C(=O)Nc1ccccc1
C      -3.30174352     -0.03469675     -1.65460746
N      -2.29950013      0.44336348     -0.71643701
C      -2.82705323      1.01641105      0.51534517
C      -1.02686141     -0.13293563     -0.81316674
O      -0.79229902     -1.04155816     -1.60559497
N      -0.09453545      0.43898791      0.02386334
C       1.21688904     -0.01033347      0.27983851
C       2.07622277      0.86326852      0.95893683
C       3.38583700      0.48170923      1.26266327
C       3.84583644     -0.78011316      0.89574444
C       2.99515612     -1.65916030      0.22958352
C       1.68450705     -1.27731662     -0.07409897
H      -2.85272970     -0.25820992     -2.62701247
H      -4.06680288      0.73484686     -1.79269077
H      -3.75809214     -0.94499976     -1.25395546
H      -3.48595411      1.85224913      0.26282020
H      -3.40094280      0.24402314      1.03734825
H      -2.05006553      1.37260087      1.19296299
H      -0.29279386      1.39173035      0.28372512
H       1.74102604      1.85266905      1.25746591
H       4.04547807      1.16950163      1.78499309
H       4.86387762     -1.08020681      1.12923863
H       3.34685934     -2.64722540     -0.05621292
H       1.04768428     -1.99460526     -0.58324302
