23
COc1ccc(NC(C)=O)cc1
C       4.14636871     -0.93708460      0.84678260
O       3.35835520     -1.13785124     -0.32011189
C       2.05807328     -0.72017427     -0.26431020
C       1.43279104     -0.11928581      0.82609061
C       0.08533626      0.26306787      0.74982380
C      -0.65161177      0.05007288     -0.41539338
N      -2.00743817      0.40466791     -0.56970278
C      -2.82946821      1.01611580      0.35955731
C      -4.22313363      1.24034564     -0.17305391
O      -2.52462159      1.38355762      1.48842324
C      -0.01979252     -0.55418907     -1.50746695
C       1.32357233     -0.93502621     -1.43032587
H       5.15072490     -1.31997071      0.64154818
H       3.74355933     -1.49806104      1.69658016
H       4.23813631      0.12825990      1.08286212
H       1.95812434      0.07019840      1.75632542
H      -0.35669242      0.72666313      1.62640997
H      -2.41851709      0.19117736     -1.46949548
H      -4.54332654      0.40123148     -0.79742104
H      -4.24289584      2.16339242     -0.75826228
H      -4.92236693      1.32541952      0.66382214
H      -0.55650166     -0.73913922     -2.43377859
H       1.80132466     -1.40338776     -2.28739908
