20
Cc1cc2ccccc2cn1
C      -3.43638239     -0.04710728     -0.00908578
C      -1.95736659     -0.29198919      0.02138309
C      -1.07135883      0.77775153     -0.08221652
C       0.30816491      0.53354178     -0.05221049
C       1.25046145      1.57094227     -0.15234255
C       2.61935023      1.29547238     -0.11924618
C       3.06462576     -0.01749926      0.01406770
C       2.14180573     -1.05906091      0.11469395
C       0.76121566     -0.79189140      0.08238194
C      -0.20847716     -1.79112114      0.17858065
N      -1.54449257     -1.57277511      0.15134081
H      -3.72198296      0.42505007     -0.95420765
H      -3.72911154      0.60290539      0.82130575
H      -3.98936118     -0.98747464      0.08289302
H      -1.45317209      1.78884644     -0.18503455
H       0.92384564      2.60321985     -0.25706075
H       3.33785583      2.10756079     -0.19770737
H       4.13027338     -0.23065401      0.03970469
H       2.50301027     -2.07967787      0.21838409
H       0.07109646     -2.83603968      0.28437616
