18
COC(=O)c1nc(Cl)c(Cl)nc1N
C       3.25765954     -0.84700057     -0.44642890
O       1.84049883     -0.97193265     -0.32917586
C       1.19890464      0.19140339     -0.04631838
O       1.73036973      1.28254884      0.10434690
C      -0.26647916     -0.04820205      0.07147178
N      -0.67018181     -1.31903165      0.37163744
C      -2.00420313     -1.47545772      0.52035510
Cl     -2.47009283     -3.08451563      0.89445722
C      -2.89758430     -0.41878968      0.38881517
Cl     -4.59717695     -0.57056442      0.57918549
N      -2.49560304      0.84354050      0.09362054
C      -1.16484400      1.02746531     -0.06446933
N      -0.80067637      2.30418857     -0.47542388
H       3.51585612     -0.16870972     -1.26567640
H       3.66790975     -1.83512130     -0.67221969
H       3.69082496     -0.49877232      0.49643914
H       0.05414358      2.64859163     -0.03762576
H      -1.58932555      2.94035947     -0.40562753
