32
O=c1[nH]c2cc(Cl)ccc2n1C1CC[NH2+]CC1
O      -1.54363255     -1.12734182      1.34387170
C      -0.37413774     -0.77022157      1.30238874
N       0.65224426     -1.17462576      2.15333984
C       1.83911081     -0.57806129      1.74298455
C       3.09805064     -0.70650514      2.28294458
C       4.11889926      0.00517882      1.65173249
Cl      5.72451598     -0.10168313      2.26222635
C       3.86369244      0.80865000      0.52100590
C       2.57015702      0.92075043     -0.00755365
C       1.56749218      0.21638098      0.62511842
N       0.18734488      0.11426916      0.35479574
C      -0.49868217      0.76405907     -0.75971240
C      -1.80033097      1.46902203     -0.32424340
C      -3.07181472      0.79203558     -0.82098136
N      -2.90073240     -0.67720961     -0.79432199
C      -1.85078589     -1.21178980     -1.70208608
C      -0.73411453     -0.19934649     -1.92901016
H       0.54042757     -1.80695207      2.93235125
H       3.29233600     -1.32615694      3.15015964
H       4.68279783      1.35157326      0.05145980
H       2.39586100      1.54410184     -0.87585449
H       0.16896697      1.55617737     -1.11837231
H      -1.79961349      2.49507264     -0.71469777
H      -1.83780316      1.57638944      0.76699149
H      -3.31245404      1.07353976     -1.85176108
H      -3.92614625      1.03573152     -0.18210153
H      -3.79438703     -1.15915969     -0.95523247
H      -2.63682245     -0.95063004      0.18061485
H      -2.33892630     -1.47017962     -2.64751844
H      -1.47698877     -2.13271558     -1.24361591
H      -0.99437961      0.39926865     -2.81275518
H       0.18985522     -0.72962199     -2.18980567
