34
CCOP(=S)(OCC)O/N=C(\C#N)c1ccccc1
C      -2.64006600      3.35699777      1.35471537
C      -3.02057446      2.06198309      0.66467061
O      -1.84369779      1.30050634      0.46082311
P      -1.97968043     -0.16043922     -0.22977534
S      -2.65045029     -0.21038412     -2.05183444
O      -2.85862263     -0.94908963      0.88201608
C      -3.00043116     -2.35481198      0.75127295
C      -3.61167317     -2.89815378      2.02643492
O      -0.49027790     -0.78627738      0.02980393
N       0.57224427     -0.12904637     -0.63268247
C       1.73616942     -0.64863681     -0.37012472
C       1.79410969     -1.79026395      0.52451891
N       1.86656628     -2.70602156      1.23669790
C       2.99322328     -0.11668418     -0.95230818
C       4.24698160     -0.66448545     -0.64144971
C       5.40669772     -0.13111430     -1.21011195
C       5.32478358      0.94800651     -2.08792246
C       4.08403275      1.49842134     -2.40206238
C       2.92178087      0.96976602     -1.83742192
H      -3.52165632      3.97911166      1.53229325
H      -2.15010097      3.15528059      2.31350969
H      -1.92622278      3.92132994      0.74405681
H      -3.72346531      1.49979259      1.28644643
H      -3.49058112      2.28247981     -0.29804640
H      -2.02379619     -2.81761153      0.57876127
H      -3.65379343     -2.57650878     -0.09860838
H      -4.58687140     -2.43661254      2.21430583
H      -3.74037758     -3.98254677      1.96574194
H      -2.97853428     -2.66506823      2.88838170
H       4.35561838     -1.50609338      0.03918105
H       6.37712011     -0.55895685     -0.96683165
H       6.22923043      1.36027866     -2.52825708
H       4.01974608      2.34017676     -3.08791645
H       1.96256875      1.41467573     -2.09827824
