38
CCC(=O)OCSc1ncnc2c1ncn2COC(=O)CC
C      -5.17170402     -1.77881560     -0.81325298
C      -5.34054905     -0.41015683     -0.17730890
C      -4.11497679      0.45318338     -0.35830413
O      -3.13062064      0.15040711     -1.01658534
O      -4.28460192      1.61776170      0.32224414
C      -3.17570055      2.52638634      0.30580832
S      -2.29938260      2.54060394      1.89627693
C      -1.40151856      1.03567617      1.70867919
N      -1.73144446     -0.03437828      2.47348915
C      -1.03019257     -1.17124722      2.29285423
N      -0.01973224     -1.40123046      1.43114587
C       0.25969887     -0.30417334      0.70728244
C      -0.36073186      0.93403657      0.78167685
N       0.20225308      1.81521429     -0.12211691
C       1.13535707      1.11957146     -0.73803190
N       1.20730284     -0.16334731     -0.26665222
C       2.09660778     -1.19572947     -0.74493372
O       3.31863540     -1.13725332     -0.00110900
C       4.31033839     -0.40193026     -0.57079848
O       4.21740507      0.18455357     -1.63880633
C       5.52887395     -0.42164266      0.31982742
C       6.66964795      0.39760902     -0.25752640
H      -4.99967452     -1.69322365     -1.89133828
H      -4.31845657     -2.31095288     -0.37943665
H      -6.06919382     -2.38516248     -0.65726272
H      -6.19548805      0.10217159     -0.63053026
H      -5.52302020     -0.53346147      0.89561270
H      -2.49915221      2.36769400     -0.54050497
H      -3.60239302      3.52522089      0.16935926
H      -1.31759993     -2.00910218      2.92203496
H       1.78265773      1.49118322     -1.52409371
H       1.63289836     -2.17125038     -0.56765431
H       2.23439847     -1.08434427     -1.82641604
H       5.24984755     -0.01559618      1.29785259
H       5.85272111     -1.46061404      0.44134116
H       6.37545776      1.44442805     -0.38740594
H       7.53721732      0.36590678      0.40867436
H       6.97481488      0.01200422     -1.23599450
