22
CCC(=O)c1ccc(N)cc1
C       3.90412568      0.01126692      0.25798270
C       2.46923857     -0.45316265      0.06508462
C       1.46282810      0.64517451      0.36438635
O       1.80642422      1.76789022      0.72962242
C       0.00641251      0.34203652      0.20970205
C      -0.46193227     -0.91555373     -0.18353502
C      -1.83766212     -1.14440324     -0.31367163
C      -2.76442258     -0.14260924     -0.01653215
N      -4.12491376     -0.34447965     -0.26672078
C      -2.29048574      1.12683495      0.31733925
C      -0.91862789      1.36467899      0.45174474
H       4.07753287      0.33511558      1.28959434
H       4.60094197     -0.80214957      0.03339642
H       4.13713750      0.85340994     -0.40207132
H       2.34118172     -0.77615544     -0.97348384
H       2.27981658     -1.29793899      0.73575235
H       0.21496869     -1.73374787     -0.40844591
H      -2.18055353     -2.11920205     -0.65214529
H      -4.73643737      0.28773203      0.24086116
H      -4.42311625     -1.31172497     -0.19019095
H      -2.98477608      1.94757127      0.47853676
H      -0.57768083      2.35941646      0.73332213
