42
N#Cc1ccccc1/C=C/c1ccc(/C=C/c2ccccc2C#N)cc1
N       5.35343164      3.43600495     -0.60989580
C       5.68525771      2.35463439     -0.34762521
C       6.10794118      1.02336414     -0.01351247
C       7.48329931      0.74329362      0.00466395
C       7.93958203     -0.53627893      0.32108268
C       7.02638959     -1.54227942      0.62411963
C       5.65608319     -1.27232907      0.60797953
C       5.17877533      0.00784836      0.28155888
C       3.72939373      0.26800729      0.29403702
C       2.85095498     -0.47782336     -0.39508260
C       1.40474501     -0.22136630     -0.40601959
C       0.87814313      1.07316193     -0.48426964
C      -0.50579990      1.27802905     -0.52382338
C      -1.38903744      0.19376345     -0.48383075
C      -2.83388133      0.44782304     -0.55656657
C      -3.74312693     -0.24387756      0.14885917
C      -5.19009975      0.01204772      0.05233415
C      -5.67915381      1.31284933      0.25719659
C      -7.04837176      1.58089442      0.19186784
C      -7.94902144      0.55287922     -0.07232607
C      -7.48141372     -0.74658383     -0.26819137
C      -6.10707709     -1.02486740     -0.20387981
C      -5.67234565     -2.37730432     -0.41482624
N      -5.33112790     -3.47518281     -0.57758357
C      -0.86171412     -1.10203372     -0.43829423
C       0.52227504     -1.30698170     -0.40081555
H       8.20691328      1.52297872     -0.22815094
H       9.00642159     -0.74714451      0.33423118
H       7.37924617     -2.53933802      0.87785230
H       4.96123875     -2.07089137      0.86216489
H       3.40205624      1.11730629      0.89007533
H       3.18162893     -1.32925410     -0.98585119
H       1.53594608      1.93846457     -0.52996487
H      -0.88360965      2.29628003     -0.58365347
H      -3.13672941      1.25035452     -1.22553112
H      -3.44384757     -1.04388874      0.82275381
H      -4.99483796      2.12989061      0.47916874
H      -7.41037289      2.59400988      0.35175874
H      -9.01503773      0.76230264     -0.12266223
H      -8.19538257     -1.54320262     -0.47160477
H      -1.51834428     -1.96939884     -0.44578905
H       0.90060998     -2.32616157     -0.36489123
