16
Nc1nc(=O)[nH]c2[nH]cnc12
N      -1.75364381     -1.95744115     -0.14186019
C      -0.53518370     -1.36060430     -0.03074868
N       0.60341232     -1.97566023      0.01376522
C       1.79182674     -1.26592981      0.13381297
O       2.88339353     -1.83081889      0.18163625
N       1.78659467      0.12616625      0.19931395
C       0.58222239      0.75264506      0.12856578
N       0.26817666      2.07191448      0.14351199
C      -1.10212674      2.13687634      0.01598640
N      -1.65442445      0.93998695     -0.07445412
C      -0.59408882      0.07758501      0.01349706
H      -2.49485028     -1.35772175     -0.49439148
H      -1.72648156     -2.88720389     -0.53951354
H       2.67820495      0.59146641      0.28176313
H       0.89822632      2.85778567      0.22266837
H      -1.63125824      3.08095385     -0.00600312
