40
CCOC(=O)OC1CCCCC1C(C)(C)C
C       4.82156906     -2.14931920     -1.71641210
C       4.22692875     -1.17952672     -0.71379765
O       2.85776806     -0.95889263     -1.06302991
C       2.20594347     -0.10632231     -0.23364265
O       2.68931314      0.45508066      0.73742338
O       0.92733635      0.00971227     -0.67119559
C       0.06905346      0.87629634      0.08933433
C       0.27093271      2.29855233     -0.45529945
C      -0.66146420      3.30346341      0.19825992
C      -2.10940579      2.87584075      0.03256679
C      -2.34589605      1.47091634      0.58081380
C      -1.41152898      0.40767140     -0.05134803
C      -1.70825759     -1.05599435      0.48773373
C      -1.28561400     -1.23541654      1.95849748
C      -3.21913530     -1.37549602      0.38451604
C      -0.98045371     -2.12921334     -0.35294503
H       4.74971017     -1.74619935     -2.73201137
H       5.87236154     -2.34979910     -1.48941624
H       4.27135946     -3.09608001     -1.70993386
H       4.28886844     -1.60640459      0.29361345
H       4.77557128     -0.23149263     -0.74719640
H       0.34455090      0.85895116      1.15107991
H       1.31023499      2.61447267     -0.30532363
H       0.11897048      2.29941927     -1.54287811
H      -0.41999419      3.39409613      1.26422599
H      -0.51379034      4.29246738     -0.24969708
H      -2.76432865      3.58644938      0.54959192
H      -2.38371748      2.90444169     -1.02921851
H      -2.21229232      1.49042943      1.66847360
H      -3.39512647      1.22539165      0.38913738
H      -1.63734930      0.38340096     -1.12834642
H      -1.54236802     -2.23888410      2.31859613
H      -1.78637952     -0.51861243      2.61628878
H      -0.20511742     -1.11756393      2.08797104
H      -3.81178980     -0.78789991      1.09311027
H      -3.59444047     -1.18107564     -0.62628204
H      -3.42070299     -2.42851148      0.61482206
H      -1.12487642     -1.95909425     -1.42528462
H       0.09221873     -2.16166204     -0.14598329
H      -1.35866198     -3.13359266     -0.12681400
