22
COC(=O)C=C1CCCC1
C       4.21053499      0.43300951      0.16089276
O       3.05095428     -0.35858821     -0.09840807
C       1.88218687      0.30378226      0.10126021
O       1.76260405      1.46014382      0.46715654
C       0.77833882     -0.63632958     -0.20334001
C      -0.52464220     -0.31382679     -0.15601599
C      -1.11571490      1.02487485      0.20720740
C      -2.60218654      0.85245167     -0.08771618
C      -2.85671058     -0.62765688      0.15019328
C      -1.62581026     -1.30170363     -0.44004151
H       5.09224190     -0.18550964     -0.02838767
H       4.23059112      0.75311790      1.20742417
H       4.24346687      1.29708076     -0.51023013
H       1.08194418     -1.64257383     -0.47325911
H      -0.96572405      1.22385951      1.27415463
H      -0.70090534      1.84781592     -0.38183648
H      -2.81316104      1.10833119     -1.13360975
H      -3.22564111      1.48909589      0.54712107
H      -3.78228689     -0.97095645     -0.32129418
H      -2.92640366     -0.83257491      1.22576535
H      -1.74405501     -1.42363734     -1.52274739
H      -1.44962151     -2.28055894      0.01571107
