29
CCOC(=O)C1=NN(c2ccccc2)C(=O)C1
C       4.27469422      0.09554560     -2.53213241
C       3.87738212      1.08246708     -1.45054211
O       2.60002762      0.72800505     -0.90383033
C       2.62103829     -0.15255827      0.11189976
O       3.58763719     -0.69158039      0.62009581
C       1.22801106     -0.44226426      0.59886099
N       0.14522931      0.11302164      0.14839841
N      -0.89408525     -0.44433093      0.87371302
C      -2.21803253     -0.02084628      0.59317289
C      -2.45420683      0.94317649     -0.40160015
C      -3.75026818      1.37737269     -0.69712990
C      -4.83478792      0.85368148     -0.00122906
C      -4.62185315     -0.10208629      0.98775439
C      -3.32377117     -0.53568199      1.28236574
C      -0.47302003     -1.39047578      1.82453424
O      -1.10699503     -2.06393347      2.62049983
C       1.01928874     -1.43779158      1.68402707
H       3.50268888      0.04265156     -3.30682178
H       4.38378710     -0.91336893     -2.12176575
H       5.22089327      0.38827674     -2.99586109
H       4.64179201      1.14614752     -0.66741095
H       3.77502384      2.08289929     -1.88352686
H      -1.62689173      1.37123484     -0.96294592
H      -3.90750167      2.12407976     -1.47098519
H      -5.84328477      1.18884584     -0.22831188
H      -5.46518575     -0.51550275      1.53548788
H      -3.21029818     -1.28276197      2.06227134
H       1.50528722     -1.11432207      2.60631787
H       1.34740131     -2.42990064      1.36859174
