24
CC(C)CC(C)(C)O
C       2.45720675      0.46238404     -1.12939947
C       1.30111514      0.49845777     -0.12248324
C       1.79678750     -0.00204006      1.23385677
C       0.11000251     -0.31270032     -0.68295194
C      -1.19358731     -0.33279869      0.14665197
C      -1.66363385      1.06788547      0.54336095
C      -2.29263019     -1.04159845     -0.65568659
O      -0.97831411     -1.09868552      1.33250232
H       2.82066216     -0.55977261     -1.28103229
H       2.14116441      0.85844358     -2.10033172
H       3.29717557      1.07258519     -0.78049093
H       1.00178024      1.54770110     -0.01460946
H       1.06117618      0.18349834      2.02138664
H       2.01329406     -1.07518154      1.20728152
H       2.71433818      0.51885496      1.52909867
H       0.44487059     -1.34909998     -0.83008685
H      -0.12319581      0.08466960     -1.68040814
H      -1.77727204      1.71635534     -0.33127447
H      -2.62772168      1.02169811      1.06335908
H      -0.96914491      1.54003784      1.24587623
H      -3.21510384     -1.12514597     -0.06951051
H      -2.52165613     -0.50946668     -1.58480128
H      -1.99280192     -2.06581402     -0.90570753
H      -1.80451151     -1.10026751      1.84540024
