26
Nc1ccc(N=Nc2ccccc2)cc1
N       5.39131019      0.11588321      0.09554178
C       3.99558182      0.02875953      0.05989030
C       3.36507933     -1.21329086      0.16096872
C       1.97115138     -1.30150950      0.24545008
C       1.18440024     -0.14755432      0.26380437
N      -0.21215830     -0.26890188      0.38165518
N      -0.78702396      0.27663014     -0.58635615
C      -2.18345262      0.14574608     -0.47302806
C      -2.89482245      0.69928318      0.60041358
C      -4.28477747      0.58038979      0.67015298
C      -4.97725752     -0.08585842     -0.33977216
C      -4.28248010     -0.62950482     -1.41930796
C      -2.89234966     -0.50900485     -1.48592293
C       1.82186804      1.09802795      0.23619605
C       3.21578169      1.18356880      0.15152949
H       5.75864266      0.98193047     -0.28619723
H       5.86375462     -0.70056338     -0.27974729
H       3.95281872     -2.12710617      0.17622195
H       1.49528436     -2.27644155      0.30819660
H      -2.35834893      1.22459045      1.38620710
H      -4.82449106      1.00878013      1.51060205
H      -6.05912132     -0.17903925     -0.28687843
H      -4.82092991     -1.14553664     -2.20988188
H      -2.35307811     -0.93001825     -2.33042438
H       1.22954247      2.00720253      0.29373526
H       3.68507592      2.16353761      0.15932244
