25
CCOC(=O)COc1ccc(Cl)cc1
C       4.63806111     -0.65049622     -0.90457630
C       4.06917738      0.65046087     -0.37021260
O       2.67156803      0.74624641     -0.68465354
C       1.81977977      0.16299748      0.21316049
O       2.16894354     -0.42022528      1.22988805
C       0.38756794      0.35782404     -0.26374118
O      -0.53106882     -0.23672703      0.64478906
C      -1.86022556     -0.14052646      0.34274905
C      -2.40645910      0.48927301     -0.77731143
C      -3.79379475      0.51218497     -0.96177413
C      -4.63216433     -0.09357175     -0.02776110
Cl     -6.33606065     -0.06184105     -0.26036823
C      -4.09637978     -0.72345142      1.09139271
C      -2.71173378     -0.74485284      1.27302432
H       5.71495429     -0.70664155     -0.72235051
H       4.15825260     -1.51318551     -0.43172602
H       4.45686096     -0.73578996     -1.98106702
H       4.56468295      1.49625111     -0.85808435
H       4.24389497      0.75364375      0.70685397
H       0.30210283     -0.11998165     -1.24655798
H       0.20650511      1.43720162     -0.32415656
H      -1.78727892      0.97169789     -1.52617655
H      -4.21253810      1.00416278     -1.83590331
H      -4.74368114     -1.19775791      1.82369262
H      -2.29096655     -1.23689531      2.14748726
