33
CCC(=O)OC1C=CC2C3CCC(C3)C12
C       4.84871043     -0.84497107      0.01861266
C       3.77265874     -0.64084162     -1.03324498
C       2.55343532      0.04905738     -0.47038146
O       2.41708954      0.41792034      0.68704484
O       1.62417272      0.19472344     -1.45565007
C       0.41323853      0.83945323     -1.04713647
C      -0.34163209      1.18118164     -2.29312795
C      -1.54098399      0.59563640     -2.35440260
C      -1.80023654     -0.28077459     -1.17256603
C      -2.92006950      0.20981553     -0.22889697
C      -3.12831048     -0.85686271      0.86256103
C      -1.86633483     -0.71327842      1.72917320
C      -1.09069646      0.41820409      1.02657131
C      -2.23769839      1.32240444      0.57173580
C      -0.52000756     -0.13853231     -0.30396506
H       4.47808440     -1.45892298      0.84622340
H       5.71790542     -1.34683072     -0.41744424
H       5.17898562      0.11279999      0.43431601
H       4.17272066     -0.02794125     -1.84778076
H       3.46696279     -1.61369278     -1.43246509
H       0.63259221      1.75204629     -0.47997940
H       0.05242834      1.84613002     -3.04914857
H      -2.24247271      0.71963087     -3.16857932
H      -1.95733773     -1.31436481     -1.50029984
H      -3.84219435      0.50067364     -0.73724329
H      -4.02107341     -0.63586288      1.45853437
H      -3.23363584     -1.86605601      0.45209777
H      -2.14188180     -0.42136941      2.74897794
H      -1.29591676     -1.64576831      1.78459481
H      -0.34476196      0.89286282      1.66743338
H      -1.91667258      2.17468539     -0.03335447
H      -2.85009854      1.68927944      1.40296550
H      -0.03696920     -1.11043507     -0.14485422
