14
NCCS(=O)(=O)O
N       2.27773911      0.15290341      0.47716174
C       1.16410445      0.11000021     -0.47345881
C      -0.13956125     -0.23413906      0.22696809
S      -1.47881671     -0.23697140     -0.95319083
O      -1.32205682     -1.32954454     -1.88342906
O      -1.75073375      1.11624006     -1.38323163
O      -2.67577114     -0.61582132      0.06221284
H       2.16800451      0.94464856      1.11132297
H       3.14694128      0.32404745     -0.03083176
H       1.38613315     -0.63933642     -1.24132222
H       1.08876767      1.07804246     -0.98111886
H      -0.38488947      0.50390594      0.99754950
H      -0.09639138     -1.23064129      0.67815311
H      -3.38346965      0.05666593     -0.03880706
