42
COc1cc(OC)c2c(c1Cl)OC1(C2=O)C(C)CC(O)CC1O
C       5.34032969     -0.67637642      1.91857462
O       3.98167200     -0.80333159      2.31473723
C       3.00705915     -0.49428586      1.39854148
C       3.26842373      0.01846500      0.10867588
C       2.22466467      0.31998385     -0.77705987
O       2.37212921      0.82353459     -2.03404049
C       3.69106878      1.00700588     -2.52911778
C       0.93273639      0.09033413     -0.33062924
C       0.65023584     -0.40856223      0.92530424
C       1.67614708     -0.70476175      1.80809590
Cl      1.30418413     -1.31628939      3.38134519
O      -0.68599863     -0.55715640      1.20918385
C      -1.41467342     -0.22750302     -0.01266629
C      -0.34955608      0.29608906     -0.96750574
O      -0.52913296      0.81901282     -2.05359515
C      -2.49422981      0.82493842      0.33372677
C      -1.91239648      2.15440195      0.82960076
C      -3.46315947      1.06972362     -0.83806060
C      -4.06965995     -0.22771080     -1.37251844
O      -4.91954536     -0.79303298     -0.37616563
C      -3.00696057     -1.26036444     -1.72828609
C      -2.05500903     -1.52352577     -0.55997637
O      -1.05281557     -2.46312775     -0.97464331
H       5.96464670     -1.00202135      2.75616632
H       5.56573532     -1.32334645      1.06446561
H       5.59097713      0.36738546      1.70341594
H       4.29224440      0.18811857     -0.20098471
H       3.61513842      1.38514190     -3.55310783
H       4.23595060      0.05782702     -2.56348956
H       4.23266240      1.75245921     -1.93773031
H      -3.07777614      0.42521162      1.17582647
H      -1.33874130      2.66374276      0.04875150
H      -1.25737184      2.00365770      1.69346924
H      -2.71623637      2.82993431      1.14221510
H      -4.26943796      1.72993247     -0.49387002
H      -2.95055414      1.59412295     -1.65250974
H      -4.68728130     -0.01937913     -2.25306408
H      -5.65547999     -0.17167806     -0.23219186
H      -2.44264449     -0.93700914     -2.61095410
H      -3.48488691     -2.20770673     -2.00915029
H      -2.59915015     -2.01212852      0.25855313
H      -1.51330770     -3.29172548     -1.19734064
