16
NC(=O)c1c(Cl)cccc1Cl
N       2.64938740      0.47961633     -0.38676480
C       1.85981542     -0.43226501      0.25377573
O       2.31789021     -1.37100374      0.88789876
C       0.40860350     -0.22695199      0.13836674
C      -0.22384973      0.79106517      0.86278873
Cl      0.64061013      1.87327279      1.89668618
C      -1.60944656      0.96015694      0.76726428
C      -2.36559101      0.11501363     -0.04438218
C      -1.73744469     -0.90083441     -0.76443718
C      -0.35215018     -1.07618415     -0.67441958
Cl      0.35395567     -2.33427157     -1.62576881
H       2.29178635      1.30339686     -0.84929512
H       3.65134701      0.38215584     -0.28140568
H      -2.10772563      1.74713099      1.33002039
H      -3.44345837      0.24584027     -0.11391185
H      -2.33372951     -1.55613795     -1.39641559
