69
C[C@H](CCC(=O)O)[C@H]1CC[C@H]2[C@H]3[C@H](C[C@H](O)[C@@]21C)[C@@]1(C)CC[C@@H](O)C[C@H]1C[C@H]3O
C      -3.82126141      1.92734178     -0.15380233
C      -3.85705898      0.39585686     -0.15747264
C      -5.04945122     -0.11142529      0.69795333
C      -6.41921568      0.27899435      0.14361080
C      -7.52371577     -0.41773613      0.89850165
O      -8.19420994      0.11074826      1.77152110
O      -7.70242422     -1.70343569      0.52102512
C      -2.52290233     -0.22695010      0.35345870
C      -2.54413817     -1.78376278      0.27945860
C      -1.10292724     -2.24961541      0.04666346
C      -0.27602165     -0.98575113      0.22925507
C       1.15909053     -0.98766026     -0.32445871
C       1.83442392      0.38643090     -0.00863480
C       0.94180951      1.57380001     -0.46228732
C      -0.51834921      1.48611057      0.02817970
O      -0.53299906      1.65550093      1.44521035
C      -1.17516126      0.13930134     -0.35681946
C      -1.33451469      0.05855306     -1.89685309
C       3.31194628      0.45434793     -0.55706074
C       3.33973725      0.37683154     -2.10753927
C       4.02892299      1.78687978     -0.18830760
C       4.31996827      1.94512509      1.29745641
C       5.15929337      0.78344561      1.81177315
O       5.33447828      0.94309557      3.21532104
C       4.47984771     -0.55236374      1.52634835
C       4.13786173     -0.73612115      0.03301033
C       3.46584621     -2.09959923     -0.22191720
C       1.99378362     -2.18036267      0.19061271
O       1.90732363     -2.35531181      1.60123217
H      -4.78812280      2.36003796     -0.42424395
H      -3.11602186      2.31033640     -0.89308784
H      -3.54221766      2.31541833      0.83106669
H      -4.02657464      0.06468870     -1.18984840
H      -4.95389839      0.26199048      1.72613634
H      -5.01470363     -1.20395143      0.77188581
H      -6.50933531      0.03384016     -0.92074946
H      -6.59591785      1.35589535      0.23464908
H      -7.08999539     -1.99754157     -0.17884105
H      -2.43435653      0.03549549      1.41805414
H      -3.18181365     -2.14804250     -0.53411119
H      -2.93260603     -2.20103867      1.21542572
H      -0.82056681     -3.03422802      0.75605561
H      -0.99149867     -2.66281732     -0.96204564
H      -0.20354094     -0.82975052      1.31685456
H       1.10171335     -1.10516809     -1.41158861
H       1.88733843      0.46712402      1.08475679
H       1.36607232      2.50492260     -0.07030747
H       0.94695711      1.65888838     -1.55282881
H      -1.07071131      2.32724083     -0.39755929
H      -0.16888238      2.53593364      1.64348410
H      -1.93224823      0.89547556     -2.27202785
H      -0.37901803      0.09819028     -2.42610345
H      -1.83494284     -0.86019580     -2.21818277
H       2.87212096      1.25593630     -2.56264806
H       4.37193046      0.34194845     -2.47647229
H       2.83493023     -0.50726731     -2.50347648
H       3.46125560      2.65324483     -0.54398273
H       4.98984584      1.83494916     -0.72039389
H       4.85534301      2.88659009      1.47232580
H       3.38942896      2.03000666      1.87149561
H       6.15159253      0.80735403      1.34607383
H       5.84072270      0.17754261      3.53768993
H       3.59243675     -0.62648437      2.16054697
H       5.13701359     -1.36641420      1.85876635
H       5.10482758     -0.76458201     -0.49126041
H       4.03627417     -2.88302962      0.29308832
H       3.53640278     -2.32580065     -1.29306992
H       1.58497758     -3.10227452     -0.23976108
H       1.68580654     -1.50673192      2.01934484
