21
COC(=O)Cc1ccccc1
C       3.97721739      0.10293049      0.68817823
O       2.91647559      0.61360147     -0.12073341
C       1.68484875      0.10912830      0.19601107
O       1.47934904     -0.70521030      1.08452376
C       0.65130802      0.72249686     -0.72468187
C      -0.76033975      0.24630351     -0.47839563
C      -1.25509302     -0.88594965     -1.14090832
C      -2.55745771     -1.32984095     -0.90608358
C      -3.37495587     -0.65116924     -0.00451420
C      -2.89021559      0.46985688      0.66634580
C      -1.58827883      0.91606430      0.43354622
H       4.06587621     -0.98096302      0.56474835
H       3.81736638      0.36318954      1.73919348
H       4.91001083      0.56634724      0.35517394
H       0.68824715      1.81239535     -0.60769899
H       0.93206322      0.49367798     -1.75993384
H      -0.62837050     -1.43395319     -1.84080911
H      -2.93231356     -2.20957299     -1.42252365
H      -4.38719302     -1.00026588      0.18082912
H      -3.52461571      0.99384847      1.37636345
H      -1.22392904      1.78708482      0.97347451
