17
CC(=O)n1c(=O)[nH]cc(F)c1=O
C       2.49097155     -0.51513877     -0.62244035
C       1.62866579      0.39027118      0.22134536
O       2.12461505      1.16207069      1.04267639
N       0.27824668      0.19986169      0.08367176
C      -0.26975482     -0.98127451      0.55256385
O       0.36963686     -1.98704681      0.85448383
N      -1.64380992     -1.01563521      0.63911367
C      -2.45203699      0.03473283      0.31324189
C      -1.92913314      1.16128587     -0.16400273
F      -2.69215941      2.20957954     -0.52321994
C      -0.46479596      1.27721178     -0.36212991
O      -0.00826214      2.23618287     -0.98224194
H       2.93794122     -1.28606208      0.01043114
H       3.28015111      0.08087726     -1.08919859
H       1.90964088     -0.99231373     -1.41669502
H      -2.03939247     -1.88179496      0.99325304
H      -3.52052428     -0.09280763      0.44914754
