50
CC(CC(C)(C)C)CC(C)(C)CC(C)(C)C
C       2.07256858      2.19356576     -0.98479278
C       1.50790022      0.86153336     -0.46152875
C       2.46032334      0.23060983      0.59107230
C       3.61636287     -0.69017236      0.09380120
C       4.54802966      0.00032545     -0.90982631
C       3.06601948     -1.97590307     -0.54712396
C       4.45587580     -1.09446336      1.32549567
C       0.11291826      1.15905092      0.17040152
C      -1.05738383      0.14193175     -0.09723704
C      -0.61785556     -1.27732493      0.29739409
C      -1.40408747      0.16541232     -1.59278551
C      -2.25097861      0.62342538      0.80529177
C      -3.73016788      0.14930390      0.63628405
C      -4.49882282      0.62477284      1.89608102
C      -3.89250111     -1.37159721      0.54750257
C      -4.41515127      0.80899170     -0.57551348
H       2.19759174      2.91717337     -0.17160348
H       3.03741333      2.07652194     -1.47851443
H       1.39317728      2.63336270     -1.72390021
H       1.39883012      0.19087494     -1.31608706
H       2.88964469      1.04042149      1.19764401
H       1.86300802     -0.36522244      1.29343752
H       4.91145797      0.95746532     -0.52073176
H       5.42645579     -0.62021933     -1.12361117
H       4.04821267      0.17628099     -1.86750073
H       2.48901020     -1.76504368     -1.45277211
H       2.41931758     -2.51999625      0.14973261
H       3.87992162     -2.65259657     -0.83286837
H       4.89830170     -0.21545088      1.80780018
H       5.27493047     -1.76732934      1.04677277
H       3.84193360     -1.61207425      2.07131563
H       0.23783930      1.28200888      1.25554481
H      -0.23654282      2.13891099     -0.18577550
H       0.24436105     -1.60359905     -0.28876665
H      -0.34787386     -1.33045815      1.35736356
H      -1.39416189     -2.02189078      0.11589239
H      -2.15638055     -0.58668793     -1.84451623
H      -0.53573790     -0.06019196     -2.21929230
H      -1.77677686      1.14927196     -1.89694883
H      -1.95473902      0.40753473      1.84323225
H      -2.27967541      1.72241443      0.75217510
H      -4.43706802      1.71313933      2.01010900
H      -4.09075650      0.16840667      2.80523655
H      -5.56047016      0.35708815      1.84245536
H      -3.50187014     -1.76996145     -0.39262179
H      -4.95054499     -1.65700219      0.58992540
H      -3.38753489     -1.87366789      1.37966556
H      -5.49781786      0.63499023     -0.55609554
H      -4.25866174      1.89335010     -0.57920361
H      -4.05784419      0.41271369     -1.52774358
