17
Nc1cccc(C(F)(F)F)c1
N      -2.34830067     -1.31349342     -0.67063652
C      -1.33692821     -0.49069700     -0.16459092
C      -1.64912461      0.76044889      0.37108235
C      -0.64029443      1.64095013      0.76639130
C       0.69735096      1.29203221      0.59076925
C       1.03501343      0.06357246      0.00636546
C       2.47611895     -0.29977565     -0.24208153
F       3.33206726      0.25878678      0.65971497
F       2.91088856      0.10313792     -1.46770954
F       2.70700466     -1.64190816     -0.18604794
C       0.00510231     -0.80643461     -0.39173510
H      -3.24796296     -1.18786912     -0.21702985
H      -2.08951895     -2.29236237     -0.74554992
H      -2.68707941      1.06273434      0.48460928
H      -0.90060536      2.60496630      1.19633186
H       1.47659028      1.98943904      0.89448166
H       0.25967820     -1.74352775     -0.88436482
