23
CC(C)SS(=O)C(C)C
C      -2.73829199      1.03377271     -0.72974416
C      -2.23307476      0.19552824      0.44108860
C      -3.31391939     -0.77696691      0.90823732
S      -0.75946313     -0.77105081     -0.04832929
S       0.72050992      0.67162995     -0.15867838
O       0.50739125      1.34337846      1.16509079
C       2.24698267     -0.34201976     -0.03931795
C       2.51358494     -1.05013424     -1.36348016
C       3.42319205      0.55833443      0.32858817
H      -1.99538307      1.77051647     -1.05212905
H      -3.00236900      0.41166129     -1.59247183
H      -3.63665214      1.58988355     -0.43889840
H      -1.97866103      0.85140405      1.27985189
H      -3.62026306     -1.46355857      0.11065620
H      -4.20634356     -0.22823180      1.22973834
H      -2.97327308     -1.37141330      1.76348770
H       2.10113188     -1.07936670      0.75772410
H       2.62581192     -0.33497511     -2.18627741
H       3.43259998     -1.64328123     -1.30551422
H       1.69949099     -1.73258369     -1.62777794
H       3.25723670      1.05285623      1.29189408
H       4.34630165     -0.02528309      0.41119114
H       3.58346026      1.33989981     -0.42270673
