16
OC1CSC(O)CS1
O      -2.80938059      0.37567552      0.08287942
C      -1.42982273      0.55665239      0.37594017
C      -0.95101187     -0.62145442      1.22597243
S       0.73473394     -0.41855121      1.89196017
C       1.64659797     -0.27079568      0.33133870
O       1.62721496     -1.51244263     -0.35421659
C       1.16278384      0.87094876     -0.57204222
S      -0.54896263      0.71931752     -1.20322546
H      -2.88563540      0.62084092     -0.85693618
H      -1.34250206      1.49842203      0.92793000
H      -1.02116595     -1.56647418      0.67411119
H      -1.62330483     -0.73709811      2.08436329
H       2.69081369     -0.07381249      0.59623063
H       1.68917287     -2.18733585      0.34386743
H       1.25864061      1.83618555     -0.06255212
H       1.80182820      0.90992188     -1.46119731
