42
CC(C)(OOC(C)(C)c1ccccc1)c1ccccc1
C      -1.93024812     -2.07732849     -1.50127041
C      -1.54244873     -1.46416546     -0.14218539
C      -1.88428327     -2.49651884      0.94836967
O      -0.10559084     -1.31607755     -0.09505317
O       0.28399761     -0.44839508     -1.21269346
C       1.72575068     -0.34872011     -1.20144062
C       2.31856583     -1.76341160     -1.34525956
C       2.09216400      0.44055030     -2.47215052
C       2.19866431      0.44562670      0.02063407
C       3.29549567      0.05213659      0.80439003
C       3.70544425      0.81390450      1.90343045
C       3.02993344      1.98430893      2.23800309
C       1.94328538      2.39618727      1.47395210
C       1.53467752      1.63586942      0.37635520
C      -2.22958930     -0.13956038      0.20617436
C      -3.33633006      0.35203141     -0.50489227
C      -3.94531413      1.55863290     -0.14505102
C      -3.46258876      2.29478995      0.93344001
C      -2.37016090      1.82581460      1.65516369
C      -1.76283394      0.62081110      1.29616167
H      -1.77131817     -1.37240449     -2.32532901
H      -2.98026034     -2.38898958     -1.52487713
H      -1.31018018     -2.95468620     -1.72054462
H      -1.39199109     -3.45496773      0.74440670
H      -2.96381388     -2.67042462      1.01893139
H      -1.52515170     -2.17758019      1.93401407
H       1.84144552     -2.30005945     -2.17392198
H       3.39748959     -1.73773901     -1.53362176
H       2.14951832     -2.36813872     -0.44693923
H       1.75020105     -0.08786496     -3.37015911
H       3.17330906      0.59847376     -2.55455652
H       1.60166101      1.42089832     -2.49484523
H       3.85270508     -0.85282707      0.57878179
H       4.55511434      0.48992237      2.49898663
H       3.34977802      2.57330448      3.09303211
H       1.40858473      3.30689359      1.72957404
H       0.67527454      1.97229952     -0.20255997
H      -3.74720820     -0.19025819     -1.35191349
H      -4.79908036      1.92300474     -0.71065375
H      -3.93680822      3.23234413      1.20984280
H      -1.98514905      2.39531276      2.49663289
H      -0.90271073      0.27700042      1.86964144
