54
COc1cc2c(c(OC)c1OC)-c1ccc(OC)c(=O)cc1C(NC(C)=O)CC2
C       4.25175909     -3.26226097     -0.35599089
O       3.94503365     -1.96997825     -0.86215506
C       2.79164539     -1.37506883     -0.42106594
C       1.96580947     -1.88158619      0.58313988
C       0.80280200     -1.19449323      0.97651313
C       0.44381745      0.02259003      0.35641449
C       1.25596728      0.50556322     -0.69564189
O       0.87195719      1.67280772     -1.31588950
C       0.73025396      1.54056038     -2.72990168
C       2.44096363     -0.16622719     -1.04129391
O       3.24765054      0.33499426     -2.03739771
C       4.24068567      1.18898919     -1.46838152
C      -0.81273126      0.75351221      0.78249070
C      -0.52964701      1.97319446      1.29579913
C      -1.25208037      2.97060579      1.82613722
C      -2.58439490      3.11064125      1.88348332
O      -3.27257928      4.12900534      2.51534838
C      -2.53677324      5.13487715      3.19617897
C      -3.47197584      2.13259007      1.11970555
O      -4.47368650      2.56078376      0.57351915
C      -3.20621210      0.65913679      0.90647372
C      -2.00389109      0.09556677      0.67842171
C      -2.08503750     -1.40720059      0.31044329
N      -1.63609900     -1.58405183     -1.06480836
C      -1.91053864     -2.71733237     -1.79004983
C      -1.37444367     -2.69042005     -3.19569823
O      -2.54835013     -3.66928313     -1.35272842
C      -1.39012972     -2.34822714      1.32875570
C      -0.11854395     -1.81501188      1.99266095
H       4.46022903     -3.22360787      0.71803850
H       3.45238997     -3.97638237     -0.57956972
H       5.15920145     -3.61104234     -0.85812234
H       2.19733413     -2.82203182      1.07431506
H       1.64405592      1.86891955     -3.23320590
H       0.46309814      0.52313058     -3.03786938
H      -0.07870889      2.20712387     -3.04483718
H       4.89700517      0.64066273     -0.78403389
H       4.85462452      1.57749635     -2.28632700
H       3.78346446      2.04201356     -0.95483698
H       0.54157938      2.21090710      1.34496906
H      -0.64952594      3.76795697      2.25861044
H      -1.93692612      4.70378355      4.00433797
H      -1.90937782      5.70031940      2.49943206
H      -3.25241111      5.83104739      3.64369241
H      -4.11539745      0.06852014      0.83301976
H      -3.13414306     -1.73523862      0.29223956
H      -1.18796835     -0.80493098     -1.52821425
H      -0.57148077     -1.95597377     -3.30519181
H      -2.18607925     -2.44135410     -3.88396189
H      -0.96951707     -3.67559002     -3.44360624
H      -2.10259911     -2.57520118      2.13317326
H      -1.16047797     -3.30879053      0.85096231
H       0.38262071     -2.63525165      2.52150366
H      -0.36222108     -1.08076269      2.77100015
