25
Cc1cc(C)c(N)c(C)c1N
C      -1.81031160     -2.28212202      0.91009273
C      -0.85676960     -1.20746698      0.46024210
C       0.51707831     -1.48017923      0.47857737
C       1.45804936     -0.52047318      0.08398445
C       2.91922268     -0.87848696      0.14133914
C       1.01890515      0.74386181     -0.35383621
N       1.96989963      1.73939906     -0.66643414
C      -0.36049096      1.06567625     -0.27204232
C      -0.82540397      2.47549934     -0.55814837
C      -1.30892580      0.05300635      0.02453715
N      -2.68590351      0.35764663      0.09033717
H      -2.44379574     -2.59934027      0.07553839
H      -2.43759898     -1.91804663      1.73025374
H      -1.27920605     -3.16723486      1.27648429
H       0.86160577     -2.45568769      0.81704237
H       3.34805607     -0.88043611     -0.86588888
H       3.46295339     -0.16687179      0.77115327
H       3.07551157     -1.87483602      0.56866089
H       1.61521996      2.45029957     -1.29666240
H       2.85414151      1.36865498     -0.99565718
H      -1.03310978      2.59033660     -1.62631512
H      -1.72433873      2.73127928      0.01159986
H      -0.08120746      3.21892786     -0.25548531
H      -2.96654352      1.09052225     -0.55192402
H      -3.28703769     -0.45392826      0.00255105
