40
CC(=O)CC(C)=Nc1ccc(N=C(C)CC(C)=O)cc1
C       5.45410251      1.20014643     -1.51549120
C       5.80970694      0.00388581     -0.67256656
O       6.50468232     -0.91131809     -1.11537056
C       5.23666683     -0.05511540      0.71814498
C       3.78173091     -0.45220452      0.70721292
C       3.45859039     -1.91064869      0.46984143
N       2.90352546      0.49792479      0.83849069
C       1.53857981      0.19260097      0.78591875
C       0.87024643      0.13560870     -0.43936207
C      -0.49653882     -0.15122880     -0.48450564
C      -1.21466253     -0.35505428      0.69636009
N      -2.57883324     -0.66469041      0.65564409
C      -3.45420047      0.29358301      0.55991007
C      -3.12217036      1.76889695      0.50292219
C      -4.91033708     -0.10303540      0.47848073
C      -5.51390246      0.09026291     -0.89091511
C      -6.76078805     -0.69952025     -1.19136477
O      -5.05395703      0.88397944     -1.71143095
C      -0.54653795     -0.29656633      1.92094869
C       0.82059043     -0.01076327      1.96633623
H       4.38987679      1.17669690     -1.76099303
H       6.03429708      1.18074157     -2.44229953
H       5.69672080      2.11790786     -0.97404715
H       5.36367824      0.92150760      1.19737262
H       5.80633477     -0.77864475      1.31084493
H       2.67467440     -2.25158066      1.15016094
H       4.34554896     -2.52720194      0.63981238
H       3.13359549     -2.04492686     -0.56543973
H       1.41452791      0.31219023     -1.36231798
H      -1.00656378     -0.21046011     -1.44216229
H      -4.03025656      2.36647273      0.62171593
H      -2.67126672      2.00660879     -0.46414009
H      -2.43289244      2.03752996      1.30735603
H      -5.48404166      0.48856981      1.19890053
H      -5.00146714     -1.15995197      0.75341029
H      -7.10219108     -0.47824258     -2.20642710
H      -6.54471876     -1.76832054     -1.11928152
H      -7.54716413     -0.42422370     -0.48434231
H      -1.09444752     -0.47127186      2.84217353
H       1.32926132      0.04985593      2.92400700
