16
COC(=O)CC(C)=O
C       2.93759857     -0.25448260      0.25859795
O       1.80843225      0.61860127      0.18777438
C       0.60492013     -0.01919981      0.26106175
O       0.46031139     -1.22890390      0.35573799
C      -0.50021296      0.98841334      0.18258934
C      -1.87927012      0.40328104      0.32658474
C      -2.33846292     -0.59472820     -0.70538023
O      -2.62367416      0.75165206      1.24535556
H       2.94306919     -0.79789807      1.20863881
H       2.93702942     -0.94938297     -0.58693461
H       3.84238991      0.35712393      0.20408574
H      -0.35771327      1.71955306      0.98630331
H      -0.45052130      1.50879262     -0.77930692
H      -3.43180282     -0.60507015     -0.73730214
H      -1.97309241     -0.30467989     -1.69389664
H      -1.97900090     -1.59307172     -0.44896304
