22
C=C(OC(C)=O)c1ccccc1
C      -0.98454828     -2.30425583     -0.10168895
C      -0.72372786     -1.02925983      0.21775231
O      -1.75741937     -0.14169909      0.54881805
C      -2.22613017      0.55921433     -0.53511895
C      -3.28157293      1.51962240     -0.07252493
O      -1.87662782      0.44516551     -1.70315967
C       0.64198394     -0.49549386      0.35706963
C       1.60208135     -0.69542916     -0.64465569
C       2.89099108     -0.17391078     -0.50879189
C       3.23228748      0.55571827      0.62824273
C       2.28519975      0.76847569      1.62795683
C       0.99564466      0.24858118      1.49153338
H      -2.00612196     -2.66393035     -0.15704202
H      -0.19339547     -3.01574354     -0.31244967
H      -3.64415105      2.09885174     -0.92660764
H      -4.12155824      0.96839962      0.35745928
H      -2.85816341      2.21116499      0.66034803
H       1.34633726     -1.24432952     -1.54849818
H       3.62479691     -0.33253598     -1.29471817
H       4.23490923      0.96211807      0.73269704
H       2.54924991      1.33919218      2.51436999
H       0.26993499      0.42008396      2.28320929
