86
CC(C)CCCCCCCCCCOC(=O)CSCc1cc(C(C)(C)C)c(O)c(C(C)(C)C)c1
C       9.60294257      0.28404008     -1.19814991
C       8.94644766      1.60627789     -0.79670355
C       9.95250215      2.74980053     -0.95947658
C       7.67838400      1.90796586     -1.61880184
C       6.56999812      0.84588567     -1.56077854
C       5.99622231      0.64206773     -0.15521122
C       4.96904557     -0.49326093     -0.07555721
C       3.67783439     -0.21769227     -0.85072947
C       2.68458715     -1.38465431     -0.79685574
C       2.14936956     -1.73588973      0.59514242
C       1.38917947     -0.61214940      1.30732213
C       0.15921920     -0.07467611      0.56235707
C      -0.89279811     -1.13534473      0.23726635
O      -1.32300019     -1.75383078      1.45534369
C      -2.04307192     -2.89645387      1.30246071
O      -2.27319745     -3.44654340      0.23136143
C      -2.46216908     -3.48205624      2.63027974
S      -3.29138801     -2.30766269      3.74581550
C      -4.88640580     -2.11366375      2.88699879
C      -4.82484914     -1.17397240      1.70755818
C      -5.00800661     -1.65516921      0.40762398
C      -4.94740917     -0.81153218     -0.71452531
C      -5.13106411     -1.38476269     -2.14146347
C      -3.85730457     -1.14418976     -2.98335422
C      -5.38112845     -2.91623121     -2.17060145
C      -6.35372110     -0.74431515     -2.83506036
C      -4.70185787      0.56302073     -0.46772738
O      -4.69516068      1.39121286     -1.55774229
C      -4.48006566      1.09938201      0.82514548
C      -4.13491561      2.58314679      1.10765692
C      -3.11788868      3.16402465      0.09652060
C      -5.43150333      3.41853227      1.08301085
C      -3.48591613      2.80028137      2.50246787
C      -4.57980449      0.19389377      1.89698760
H       8.95420759     -0.56868051     -0.96931433
H      10.53543806      0.12991289     -0.64197556
H       9.84010943      0.26406604     -2.26811557
H       8.68735610      1.55399382      0.26779127
H      10.27011211      2.85688476     -2.00234057
H       9.51301078      3.70144087     -0.64028688
H      10.84616559      2.57221240     -0.34977081
H       7.25994290      2.86702863     -1.28536023
H       7.96107676      2.04257064     -2.67160782
H       5.76904468      1.17431800     -2.23478548
H       6.93695971     -0.10747348     -1.96055236
H       6.80565345      0.39706331      0.54138886
H       5.54265661      1.57569610      0.19721481
H       4.73108118     -0.64778951      0.98292250
H       5.42635759     -1.42393643     -0.43580100
H       3.20689312      0.69962747     -0.47960215
H       3.91351571     -0.03715439     -1.90582709
H       3.16876719     -2.27800421     -1.21358410
H       1.84449746     -1.16084117     -1.46498439
H       1.50084980     -2.61630614      0.50597803
H       2.97870502     -2.05508776      1.23734135
H       1.07629531     -0.98297707      2.29175726
H       2.06950882      0.22486539      1.51029654
H      -0.30337651      0.68897945      1.20029767
H       0.46657378      0.42938684     -0.36103300
H      -0.48324096     -1.87714216     -0.45561065
H      -1.75523085     -0.65632961     -0.23585019
H      -1.56441947     -3.86392063      3.12916405
H      -3.12509996     -4.33294065      2.45491010
H      -5.26707725     -3.09946351      2.59766067
H      -5.60984305     -1.71359581      3.60849391
H      -5.18413839     -2.72126866      0.28854252
H      -3.65849861     -0.08423534     -3.16205598
H      -2.97432226     -1.56829686     -2.49163360
H      -3.94479578     -1.61598095     -3.96874019
H      -6.29039705     -3.18943161     -1.62256405
H      -4.53875132     -3.47435692     -1.74264378
H      -5.51041860     -3.27929823     -3.19725562
H      -6.22754888      0.32546048     -3.02555615
H      -7.25832944     -0.87109407     -2.22774622
H      -6.53960308     -1.21138617     -3.81060633
H      -5.28238581      2.13502401     -1.34873973
H      -3.54863421      3.34248317     -0.89419862
H      -2.74607729      4.14324108      0.42801525
H      -2.25208939      2.50163217     -0.01251808
H      -5.23484428      4.46329619      1.35174037
H      -6.16104892      3.02725754      1.80357938
H      -5.91447146      3.41935212      0.10115831
H      -3.17327534      3.84224915      2.63839932
H      -4.18489929      2.58812092      3.32003331
H      -2.59628669      2.17228493      2.63210288
H      -4.44878059      0.53306208      2.92158797
