42
CC[P+](c1ccccc1)(c1ccccc1)c1ccccc1.[I-]
C      -0.77073783      0.80042128      3.02924679
C       0.40263445      0.22933583      2.31228515
P       0.17857265      0.06953860      0.54263932
C       1.62858740     -0.77108256     -0.12210132
C       2.83721531     -0.65159227      0.51047640
C       3.93297087     -1.27913418      0.01925389
C       3.88545430     -2.05261589     -1.11794989
C       2.66474295     -2.16142207     -1.73966518
C       1.54094036     -1.53494330     -1.26065376
C      -0.02814161      1.59653683     -0.29511852
C       0.27543027      2.83977971      0.19743101
C       0.09852428      4.01365141     -0.49144269
C      -0.41686850      3.96788287     -1.76476257
C      -0.73605547      2.74097770     -2.29963688
C      -0.54789636      1.57968752     -1.58541936
C      -1.24393423     -0.96791454      0.23758048
C      -1.12519854     -2.33105174      0.13455854
C      -2.25142659     -3.10852030     -0.10308574
C      -3.45426635     -2.46227465     -0.22602833
C      -3.56706334     -1.11111603     -0.12317925
C      -2.46598030     -0.33354820      0.11070477
I       0.00000000      0.00000000      0.00000000
H      -0.39834568      1.65195680      3.66365516
H      -1.23549311      0.08286329      3.75878229
H      -1.60102838      1.12180550      2.36384644
H       1.34896618      0.81437643      2.47744771
H       0.61465482     -0.77942864      2.72335863
H       2.89467190     -0.04926390      1.40381872
H       4.88893357     -1.16595793      0.54658852
H       4.74609764     -2.55905345     -1.52336302
H       2.57000474     -2.75957865     -2.64113669
H       0.57188085     -1.63439095     -1.77310482
H       0.68210626      2.86433090      1.20465088
H       0.36141826      4.98077871     -0.04173757
H      -0.56675484      4.89585398     -2.33426779
H      -1.14296091      2.75488020     -3.31552787
H      -0.82739746      0.65670506     -2.08582701
H      -0.14894239     -2.77782396      0.24123668
H      -2.12745324     -4.17660861     -0.17917578
H      -4.32948517     -3.09492168     -0.41325641
H      -4.54846818     -0.63132183     -0.22770269
H      -2.58990855      0.73220272      0.18658175
