16
C/C=C/C=C/C(=O)O
C      -3.24521015     -0.37890214     -0.00429246
C      -1.87415731     -0.06883309      0.50309389
C      -0.76367379     -0.16103872     -0.24328568
C       0.55154094      0.14478948      0.27171136
C       1.66262340      0.05326068     -0.47261827
C       2.96646717      0.37993065      0.11709601
O       3.19832752      0.74399845      1.25334209
O       3.93743135      0.22186774     -0.79654537
H      -3.23867284     -0.68951204     -1.05384949
H      -3.68755168     -1.18591024      0.58772438
H      -3.88428444      0.50473427      0.08616350
H      -1.81233547      0.24674835      1.54259768
H      -0.83768393     -0.47781268     -1.28202766
H       0.62168180      0.46157105      1.31199613
H       1.65125538     -0.25584702     -1.51008843
H       4.75424206      0.46095527     -0.31101768
