56
C[C@]12C[C@H](O)[C@@]3(F)[C@@H](CCC4=CC(=O)CC[C@@]43C)[C@@H]1CC[C@]2(O)C(=O)CO
C       2.19449103      1.02484389     -0.97734974
C       1.91264870     -0.03184038      0.12413245
C       1.25290911     -1.29402297     -0.47662952
C      -0.18026816     -1.04743221     -1.00105674
O      -0.10622980     -0.33423985     -2.23114386
C      -1.10862691     -0.35151890      0.04342330
F      -1.24573995     -1.28337486      1.06309585
C      -0.43244412      0.88564135      0.70868823
C      -1.30560796      1.41283164      1.86030199
C      -2.71010206      1.76762124      1.39177599
C      -3.38220061      0.61991911      0.67776738
C      -4.62837770      0.25294684      1.02677098
C      -5.38206550     -0.76820716      0.26344496
O      -6.50692707     -1.09356257      0.63480071
C      -4.76735930     -1.29783778     -1.00518709
C      -3.25472023     -1.38670255     -0.86500625
C      -2.58015918     -0.04195845     -0.45804943
C      -2.63187864      0.92673769     -1.66232180
C       0.95617806      0.48126521      1.22937023
C       1.78473241      1.52728912      1.96284820
C       3.21482615      0.95801618      1.94582679
C       3.20593580     -0.25911530      0.97324869
O       3.07022314     -1.44908950      1.75687126
C       4.51595231     -0.37115661      0.16352462
O       5.40770650      0.48276342      0.21147925
C       4.69454025     -1.59439618     -0.72950689
O       6.04579260     -1.73081194     -1.15428694
H       2.78815052      1.86704400     -0.60674875
H       1.28681151      1.45711375     -1.40235926
H       2.75550933      0.58019097     -1.80662144
H       1.19622057     -2.08411925      0.28220932
H       1.87038802     -1.68492389     -1.29178512
H      -0.60245259     -2.03213686     -1.23372885
H       0.34851059     -0.90399001     -2.87705372
H      -0.32716413      1.69222605     -0.02371690
H      -0.84983251      2.30867387      2.29806172
H      -1.36519674      0.66577371      2.66250858
H      -3.29808894      2.09459541      2.25821471
H      -2.66117364      2.62747883      0.71219365
H      -5.17562592      0.72097497      1.83783286
H      -5.17000977     -2.29902918     -1.19455326
H      -5.06074929     -0.64903782     -1.83644981
H      -2.83695388     -1.75542324     -1.80965562
H      -3.03514275     -2.15466681     -0.11088486
H      -3.64322505      1.32271206     -1.81735798
H      -2.35404093      0.43201347     -2.59791042
H      -1.97213874      1.78966514     -1.53092593
H       0.79091288     -0.33326132      1.95342496
H       1.75163887      2.49593847      1.45141758
H       1.43647359      1.68379623      2.98895955
H       3.90047565      1.75232365      1.63219649
H       3.50655037      0.65934952      2.95932853
H       3.75242907     -1.43465488      2.45365448
H       4.41883947     -2.50252096     -0.18950196
H       4.07543638     -1.48463871     -1.62118357
H       6.44021917     -0.83607565     -1.10527622
