8
FC(F)(F)C(Cl)(Cl)Cl
F      -1.23204171     -1.20500787      0.62011195
C      -0.81633088     -0.08106868     -0.01696776
F      -1.29710682     -0.15125258     -1.28419078
F      -1.44638644      0.96145552      0.58144546
C       0.71405980      0.07091223      0.01484210
Cl      1.32173175      0.16126392      1.70863203
Cl      1.52134739     -1.32664136     -0.78608458
Cl      1.23472690      1.57033883     -0.83778842
