53
OCCOCCN1CCN(C(c2ccccc2)c2ccc(Cl)cc2)CC1
O       6.09605182      0.39371959      2.83485517
C       6.28647100     -0.77358104      2.03707670
C       6.38734977     -0.38452534      0.56318378
O       5.22715970      0.35478779      0.15685730
C       4.12428675     -0.48789311     -0.19862534
C       2.96871367      0.39986861     -0.68702852
N       1.78936096     -0.34838316     -1.15482867
C       0.85878190      0.55556100     -1.86034886
C      -0.45216313     -0.14688409     -2.28754194
N      -1.19252795     -0.81918653     -1.18954976
C      -1.82187861      0.15249866     -0.24655777
C      -2.51531214     -0.51487500      0.95004545
C      -3.39820438     -1.59607604      0.78504203
C      -4.02913676     -2.17760145      1.88612728
C      -3.79159923     -1.68458585      3.16688765
C      -2.92493748     -0.60931249      3.34918508
C      -2.29251964     -0.02632719      2.24935775
C      -2.81243084      1.10878469     -0.93100458
C      -2.80514496      2.47610333     -0.60158615
C      -3.71141371      3.35801622     -1.19639159
C      -4.63668833      2.88114053     -2.12206008
Cl     -5.75031625      3.96928685     -2.85474737
C      -4.66609521      1.53028740     -2.45771624
C      -3.76114270      0.64829592     -1.86243144
C      -0.22177695     -1.71938069     -0.51862500
C       1.09240207     -1.04352971     -0.05598943
H       5.51069006      0.97855134      2.31522894
H       5.43780118     -1.43818744      2.22012289
H       7.19986734     -1.27481828      2.36966362
H       6.54248269     -1.25876795     -0.07820388
H       7.23851292      0.29140789      0.43028931
H       4.43133400     -1.17254050     -0.99769774
H       3.82082435     -1.06922751      0.67651628
H       3.36268348      1.00991697     -1.51162269
H       2.69727351      1.11457140      0.10191854
H       0.62182528      1.42806035     -1.23828616
H       1.34673929      0.93304752     -2.76736720
H      -0.20587970     -0.91091119     -3.03807953
H      -1.08573022      0.56824838     -2.82263376
H      -1.01909735      0.77724433      0.16553683
H      -3.58935618     -1.99636799     -0.20791842
H      -4.70708535     -3.01459141      1.74223162
H      -4.28530808     -2.13632178      4.02309042
H      -2.74461064     -0.22132231      4.34835600
H      -1.62628332      0.81721989      2.41449515
H      -2.09647306      2.86341915      0.12706759
H      -3.69334811      4.41149846     -0.93005745
H      -5.38854685      1.15530774     -3.17717056
H      -3.79030130     -0.40534339     -2.13345412
H      -0.67497305     -2.24377679      0.32921090
H       0.03333778     -2.51922137     -1.22824719
H       1.73710373     -1.83272494      0.34618110
H       0.87922822     -0.35057949      0.76724406
