55
COc1ccc(OC)c(-c2cccc3c(N)c4c(nc23)CN(C2CC(C)C2)C4=O)c1
C      -4.13769874     -3.70137856     -0.54970833
O      -4.78706983     -2.73148044     -1.36247087
C      -4.52642818     -1.41867693     -1.08199479
C      -5.15017122     -0.50558166     -1.92968384
C      -4.96828251      0.86963608     -1.75984307
C      -4.15341016      1.35318054     -0.73168882
O      -3.92115088      2.68523432     -0.49275970
C      -4.41172078      3.61782348     -1.44597918
C      -3.51971484      0.44183704      0.14204924
C      -2.65921333      0.89856188      1.25863843
C      -3.27417007      1.50689499      2.37039308
C      -2.52403190      1.93957136      3.45322351
C      -1.14313109      1.78074181      3.43449978
C      -0.48257176      1.19123940      2.33400956
C       0.93120341      1.04490063      2.29546188
N       1.75822778      1.39347702      3.38333269
C       1.45475058      0.37219335      1.20668399
C       0.64055940     -0.06165061      0.18842214
N      -0.68995634      0.10180714      0.16361893
C      -1.26193475      0.72121458      1.22646865
C       1.45398877     -0.73251945     -0.87708924
N       2.80943215     -0.62897039     -0.36492767
C       3.95473153     -1.14191381     -1.12253883
C       4.95971350     -2.02064118     -0.34257244
C       6.08392630     -1.34446739     -1.17052621
C       7.37768192     -1.04934134     -0.44037051
C       5.11442572     -0.15043309     -1.37254640
C       2.83815671      0.03514594      0.85820747
O       3.79918891      0.33183477      1.54484120
C      -3.71877327     -0.94250856     -0.05033384
H      -4.43143975     -4.69127115     -0.91203375
H      -3.04867013     -3.62513939     -0.63627640
H      -4.45933595     -3.62035389      0.49384571
H      -5.78508866     -0.86807269     -2.73471631
H      -5.48058613      1.53355782     -2.44740863
H      -5.50639461      3.62909481     -1.45653011
H      -4.00672410      3.41792000     -2.44358782
H      -4.07298850      4.61348030     -1.14365917
H      -4.35471280      1.63943682      2.38426211
H      -3.01225993      2.39926916      4.30844585
H      -0.58252207      2.11720134      4.30297106
H       2.75502179      1.36300427      3.14281347
H       1.50858668      2.26394743      3.83919479
H       1.38279331     -0.20082714     -1.82995717
H       1.18491364     -1.78684576     -0.98460752
H       3.62743451     -1.62808672     -2.05269956
H       5.01828626     -1.83116402      0.73465504
H       4.85389017     -3.09851077     -0.49709657
H       6.27868526     -1.87875565     -2.11145096
H       7.19910833     -0.51682400      0.49959457
H       7.90836092     -1.97793325     -0.20730438
H       8.03631846     -0.43156882     -1.05906225
H       5.22281333      0.64784806     -0.63035221
H       5.13502571      0.30076958     -2.36895760
H      -3.21707276     -1.62590729      0.62818809
