46
CC1COc2c(N3CCN(C)CC3)c(F)cc3c(=O)c(C(=O)O)cn1c23
C       3.19047452      3.07413614      1.13991874
C       2.21059884      1.89877350      1.14147719
C       0.91428171      2.34354900      0.45420342
O      -0.07974574      1.32380588      0.52742177
C       0.36602077      0.12246783      0.00641667
C      -0.63187147     -0.77697986     -0.46429855
N      -1.99606681     -0.42540748     -0.36748180
C      -2.50719007     -0.43750056      1.02453632
C      -3.88880282      0.25847162      1.08742127
N      -4.87794246     -0.33949426      0.16138660
C      -6.13913502      0.39597601      0.20879272
C      -4.32255288     -0.33599828     -1.21206837
C      -2.95550855     -1.05763944     -1.29723154
C      -0.17334432     -1.97767949     -1.03888168
F      -1.03455792     -2.88819598     -1.51838328
C       1.17879651     -2.29628498     -1.11738009
C       2.12727459     -1.40667360     -0.61567513
C       3.56043779     -1.77418044     -0.66653952
O       3.94071736     -2.81440430     -1.20070302
C       4.53851012     -0.86908025     -0.03052666
C       5.98295640     -1.16495032      0.07101840
O       6.78288837     -0.42352715      0.62390708
O       6.35903457     -2.32987819     -0.49952747
C       4.06379434      0.27609561      0.48304345
N       2.74589331      0.70453499      0.44599952
C       1.74719303     -0.18034289     -0.04688917
H       3.54083148      3.30213666      0.12719722
H       4.06582997      2.86714968      1.76349145
H       2.71937083      3.97530390      1.54766070
H       1.98996110      1.61562290      2.17926524
H       0.50201143      3.22510949      0.95779575
H       1.07708327      2.61724701     -0.59721228
H      -2.59932425     -1.47422474      1.37546124
H      -1.83624973      0.08045436      1.71808523
H      -4.26316933      0.18386787      2.11541562
H      -3.75560783      1.32524546      0.86147106
H      -6.87778719     -0.06718409     -0.45465931
H      -6.56147530      0.36736580      1.21928764
H      -6.02167408      1.44508034     -0.08577840
H      -5.02094135     -0.84343631     -1.88823272
H      -4.20376953      0.69515904     -1.57152982
H      -2.59000161     -0.98679709     -2.32862012
H      -3.10409474     -2.11517285     -1.04595859
H       1.47266188     -3.24462598     -1.55889304
H       5.61711410     -2.83180651     -0.91804973
H       4.74707670      0.96391198      0.97541075
