37
CCOP(=O)(OCC)SCn1nnc2ccccc2c1=O
C      -4.95642084     -3.43314912      1.09851702
C      -3.98070358     -2.76032177      0.15545517
O      -3.79387509     -1.42071124      0.57556306
P      -2.65963156     -0.55674791     -0.18644830
O      -2.72651821     -0.72333331     -1.67826237
O      -3.05296193      0.93626445      0.28824526
C      -2.35517578      2.02383773     -0.29166296
C      -3.02802617      3.31292744      0.13245732
S      -0.77931945     -1.07805955      0.52525519
C       0.23265402     -0.72036042     -0.92853755
N       1.62871883     -0.56579064     -0.56940664
N       2.36236045     -1.71530513     -0.48162644
N       3.57006235     -1.69792384     -0.16215159
C       4.19592279     -0.48244243      0.13576258
C       5.54688151     -0.48874239      0.50292624
C       6.21203917      0.70305038      0.80852481
C       5.53004368      1.91768092      0.74969152
C       4.18523154      1.93827281      0.38556370
C       3.53647617      0.73516388      0.08315641
C       2.12994175      0.69328526     -0.30485296
O       1.48003775      1.73290227     -0.38036531
H      -5.13103157     -4.47171861      0.80396761
H      -4.57450010     -3.41619713      2.12465814
H      -5.91407007     -2.90216317      1.10638939
H      -4.37930807     -2.76640011     -0.86379135
H      -3.02367453     -3.29091631      0.16487420
H      -1.31812920      2.01427133      0.05459370
H      -2.36808706      1.93608314     -1.38240682
H      -3.03249350      3.40495479      1.22361486
H      -2.51425951      4.17960248     -0.29275612
H      -4.07359224      3.32710870     -0.19261190
H      -0.12467521      0.19591542     -1.40759668
H       0.13768532     -1.53714124     -1.65175846
H       6.08579217     -1.43245349      0.55197787
H       7.26171811      0.68122812      1.09285059
H       6.04487403      2.84566829      0.98763980
H       3.64601404      2.88166041      0.33820590
