48
COc1cc(O)c(CC=C(C)C)c2c1C(=O)CC(c1ccc(O)cc1)O2
C      -2.87758674      4.45168788      1.28953245
O      -1.72338089      4.09272780      2.05336491
C      -1.49722111      2.74635168      1.99631354
C      -2.10920870      1.95266038      2.96607275
C      -1.83250947      0.58696952      3.01510269
O      -2.43553078     -0.19213272      3.96191978
C      -0.93292605     -0.00795271      2.12253253
C      -0.63990839     -1.49326243      2.19035077
C      -1.57184626     -2.30433801      1.32966710
C      -1.28754479     -3.00482956      0.21565865
C       0.06769760     -3.10426763     -0.42780098
C      -2.36645264     -3.77020977     -0.50523283
C      -0.32544553      0.80560051      1.14629534
C      -0.59726582      2.18269803      1.08736024
C       0.11368832      2.99072852      0.06603738
O      -0.20337465      4.14346119     -0.21127425
C       1.26786089      2.31408347     -0.61301811
C       0.83140831      0.89138550     -0.91253258
C       1.91107613      0.14774657     -1.67751335
C       1.83700423      0.04607693     -3.07855686
C       2.83282731     -0.62078786     -3.80041934
C       3.91010715     -1.18312452     -3.12132193
O       4.90766379     -1.83993835     -3.78500288
C       4.00643699     -1.09068176     -1.73686027
C       3.01282402     -0.42365807     -1.01655725
O       0.56599403      0.18328895      0.30325700
H      -3.77179552      4.37027988      1.92097558
H      -2.76426264      5.49689511      0.98395864
H      -3.00580728      3.84228764      0.38510331
H      -2.78004956      2.41740696      3.68425134
H      -2.93482537      0.37221178      4.57136076
H       0.41438989     -1.67343312      1.95331705
H      -0.73487996     -1.84273807      3.22567175
H      -2.59360482     -2.32550165      1.70819380
H       0.36967145     -4.15223660     -0.51374397
H       0.85381927     -2.58658731      0.12753204
H       0.03343481     -2.67437880     -1.43441943
H      -2.45040258     -3.41136268     -1.53273489
H      -2.12600545     -4.84002996     -0.52777575
H      -3.34504375     -3.66058156     -0.02921510
H       2.13102165      2.36094878      0.05942344
H       1.50835285      2.85337359     -1.53609383
H      -0.08794402      0.87568228     -1.51126211
H       1.00038956      0.48695618     -3.62035696
H       2.75033422     -0.68710909     -4.88272533
H       4.71604808     -1.82830249     -4.73746822
H       4.85289037     -1.53526721     -1.21791627
H       3.09988185     -0.35879717      0.06654966
