45
CC1CN(S(=O)(=O)NC(=O)NCC2CC3C=CC2C3)CCO1
C       5.78933176      1.64119221     -0.66588313
C       5.68599834      0.14506386     -0.94297155
C       4.33691606     -0.30188493     -1.53374001
N       3.25653387     -0.45803931     -0.51780480
S       2.26899270      0.87647127     -0.21131118
O       2.76341435      1.52486427      0.97493168
O       2.06197180      1.56300104     -1.46330112
N       0.88267760      0.02277439      0.10541140
C      -0.18627721      0.58107105      0.79473756
O      -0.14570829      1.63519179      1.40483080
N      -1.29641798     -0.21337894      0.71206241
C      -2.47965764      0.09225395      1.49133388
C      -3.70538782     -0.65588996      0.96858094
C      -4.96535076     -0.40784780      1.86062764
C      -6.00531482      0.12527847      0.85140515
C      -6.31809878     -0.97760564     -0.13265640
C      -5.23244542     -1.14055786     -0.90430945
C      -4.18894249     -0.15558360     -0.42069639
C      -5.12333630      0.99950644     -0.04320514
C       3.73119683     -1.22751950      0.66824725
C       5.04387158     -0.66153848      1.21466518
O       6.06027460     -0.63456667      0.20438310
H       5.11594139      1.97392256      0.12473108
H       6.80182127      1.88860341     -0.32821306
H       5.57462667      2.22281012     -1.56754902
H       6.44847806     -0.07422129     -1.70098937
H       4.02866264      0.34988610     -2.35680054
H       4.46925648     -1.29743758     -1.97923753
H       0.63445164     -0.54445530     -0.69383691
H      -1.12808043     -1.17732173      0.46703325
H      -2.63646290      1.17632283      1.49462873
H      -2.26642760     -0.20841054      2.52386548
H      -3.47884421     -1.73034901      0.93582180
H      -4.76556226      0.33958812      2.63684688
H      -5.29643688     -1.33150257      2.34831490
H      -6.87626844      0.62321923      1.27814649
H      -7.23406466     -1.54744636     -0.17427502
H      -5.10076425     -1.86945774     -1.68947687
H      -3.42060045      0.08800249     -1.15537083
H      -4.62730552      1.81162410      0.49835709
H      -5.65935969      1.42450446     -0.90203003
H       3.88535277     -2.26282770      0.33917417
H       2.96590185     -1.25601165      1.45062120
H       4.92363807      0.33713073      1.64272025
H       5.40780446     -1.30842872      2.01987948
