32
CCN(CC)C(=O)N(CC)CC
C       2.17088118      1.90852350      1.06113194
C       1.61035464      1.33230006     -0.23366944
N       1.30468106     -0.09968732     -0.13811066
C       2.46111890     -0.98312433      0.01996723
C       2.25214255     -2.33528910     -0.64900003
C       0.14216789     -0.47041716      0.54578420
O       0.16420188     -1.27773544      1.47452808
N      -1.03976201      0.13798099      0.11042789
C      -2.21221403     -0.04886484      0.96906981
C      -2.95355970     -1.35684525      0.72830879
C      -1.27716716      0.34476638     -1.32623872
C      -2.06061918      1.61030856     -1.63834222
H       2.36331033      2.97969891      0.94529625
H       3.11243238      1.42486577      1.33933371
H       1.46737753      1.77540543      1.88940301
H       2.32209776      1.47305899     -1.05470128
H       0.71113669      1.89838535     -0.48753322
H       3.33079065     -0.50748792     -0.44793018
H       2.67791980     -1.11181839      1.08652264
H       1.42604854     -2.89131825     -0.19567722
H       2.02537094     -2.21042583     -1.71309100
H       3.15693555     -2.94461526     -0.56024667
H      -1.88580523     -0.01420468      2.01575879
H      -2.88815258      0.80053550      0.83190082
H      -3.77019166     -1.46392245      1.44925272
H      -2.29024605     -2.22074588      0.83359361
H      -3.38924806     -1.38889374     -0.27486277
H      -1.81186941     -0.53188006     -1.70863381
H      -0.33306718      0.36811167     -1.87815050
H      -3.08656918      1.55254412     -1.26297171
H      -1.58519929      2.48942025     -1.19234862
H      -2.11529757      1.76137041     -2.72114679
