16
O=C(O)c1ccc(O)cc1
O      -2.96620248     -0.82919850      0.92990049
C      -2.28353013      0.11137059      0.56813782
O      -2.80023863      1.34779672      0.45800364
C      -0.84612805      0.05208137      0.20838334
C      -0.13376336      1.18718790     -0.19939073
C       1.21950333      1.08029831     -0.52802333
C       1.85435387     -0.15474169     -0.44868908
O       3.17548015     -0.20970803     -0.77924750
C       1.16038144     -1.29154897     -0.04533242
C      -0.19362835     -1.18683101      0.28391997
H      -3.73730851      1.23549915      0.72228275
H      -0.62038158      2.15704235     -0.26477005
H       1.77633980      1.95802360     -0.84488518
H       3.48551200     -1.12481369     -0.67902315
H       1.64935023     -2.25861905      0.01889184
H      -0.73973973     -2.07383904      0.59984159
