28
O=c1cccc2n1C[C@@H]1CNC[C@@H]2C1
O      -3.21741988     -2.72406722      0.00000000
C      -2.89124930     -1.25995904      0.00000000
C      -3.99611889     -0.24543295      0.00000000
C      -3.66994832      1.21867523      0.00000000
C      -2.23890816      1.66825732      0.00000000
C      -1.13403857      0.65373123      0.00000000
N      -1.46020914     -0.81037695      0.00000000
C      -0.35533955     -1.82490304      0.00000000
C       1.07570061     -1.37532096      0.00000000
C       2.50674077     -0.92573887      0.00000000
N       2.83291135      0.53836931      0.00000000
C       1.72804176      1.55289540      0.00000000
C       0.29700159      1.10331331      0.00000000
C       1.40187118      0.08878722      0.00000000
H      -5.42715906     -0.69501504      0.00000000
H      -4.77481791      2.23320132      0.00000000
H      -1.91273759      3.13236549      0.00000000
H       0.33590989     -3.15613338      0.00000000
H      -1.54631130     -2.73681657      0.00000000
H       1.86380118     -2.30004929      0.00000000
H       4.00524478     -0.99271446      0.00000000
H       2.80977007     -2.10234341      0.00000000
H       4.26395151      0.98795140      0.00000000
H       1.30374519      2.69140206      0.00000000
H       2.91901351      2.46480893      0.00000000
H       0.41466965      2.31260204      0.00000000
H       1.98070724      0.63688874      0.00000000
H       2.88517741     -0.13437783      0.00000000
