31
NC(=O)N1c2ccccc2C2OC2c2ccccc21
N      -1.30520035      2.83149853     -1.07100231
C      -0.05615011      2.35250811     -0.78390598
O       0.88976084      3.12695687     -0.90746435
N       0.01040110      0.99199233     -0.46019106
C      -1.11537758      0.27644652      0.08759314
C      -1.90407606      0.88929694      1.08149966
C      -2.97762525      0.21765214      1.66476007
C      -3.27740134     -1.07775973      1.26627722
C      -2.50688043     -1.69398561      0.28031208
C      -1.41994500     -1.03733199     -0.33163908
C      -0.67997135     -1.72660932     -1.44179600
O       0.15189517     -2.84251648     -1.08423333
C       0.81986880     -1.65505505     -1.54119481
C       1.63452641     -0.88763797     -0.53821023
C       2.85291823     -1.43509541     -0.08631442
C       3.70572608     -0.72883407      0.76093058
C       3.36069906      0.55130566      1.17105385
C       2.15650898      1.11413862      0.74781986
C       1.27563186      0.40505340     -0.09098901
H      -1.95436364      2.18449837     -1.49583415
H      -1.29082061      3.75886030     -1.47548519
H      -1.66439788      1.88978807      1.43608784
H      -3.56673305      0.70211658      2.43917763
H      -4.10644095     -1.61276136      1.72248316
H      -2.75338360     -2.71018564     -0.02446796
H      -1.21408310     -1.80859754     -2.38421884
H       1.23038991     -1.69100042     -2.54659095
H       3.14276999     -2.43134504     -0.41668742
H       4.64006786     -1.17565778      1.09002027
H       4.02115809      1.11366725      1.82575185
H       1.90052791      2.10859371      1.10645788
