28
NS(=O)(=O)c1cc2c(cc1Cl)NC(C(Cl)Cl)NS2(=O)=O
N       4.23639489      1.18585118      0.84211523
S       4.00380124     -0.06225371     -0.26405872
O       4.47021792      0.47302293     -1.52047345
O       4.57068625     -1.22694637      0.37159527
C       2.25444343     -0.26249218     -0.35279361
C       1.41206590      0.52779557      0.43521345
C       0.02614533      0.35458931      0.34149764
C      -0.55577061     -0.57395787     -0.52367691
C       0.31219046     -1.38104181     -1.27190223
C       1.70700012     -1.22325344     -1.20521740
Cl      2.65666669     -2.26721897     -2.19991822
N      -1.92852029     -0.83678770     -0.56092225
C      -2.84415148      0.19975739     -0.08970197
C      -4.33954133     -0.24133131     -0.16603386
Cl     -4.81209766     -0.57949398     -1.86009025
Cl     -4.67027056     -1.69711132      0.82698057
N      -2.47082163      0.50396115      1.28354544
S      -1.01649068      1.31957999      1.37951668
O      -0.55036186      1.17919319      2.73922727
O      -1.18389945      2.60490956      0.74099254
H       4.70368412      1.96515148      0.37377431
H       4.76215200      0.82925687      1.64319936
H       1.81000491      1.26824521      1.12577835
H      -0.09904246     -2.15480593     -1.91906060
H      -2.23111575     -1.24738267     -1.44656911
H      -2.75007218      1.09443412     -0.72011032
H      -4.99032525      0.55561771      0.20672858
H      -2.48297205     -0.30728841      1.90319422
