9
CSC
C      -1.36084003      0.08028077      0.25368670
S      -0.10736909     -1.19474091      0.52480014
C       1.35612855     -0.13270718      0.54992953
H      -2.34751157     -0.38831408      0.20847783
H      -1.35558796      0.80045103      1.07600753
H      -1.17871151      0.59853361     -0.69136749
H       2.24536103     -0.74835727      0.70926026
H       1.28582673      0.59338710      1.36401159
H       1.46270385      0.39146691     -0.40336356
