35
CCC(C(=O)NC(N)=O)(C(=O)OC)c1ccccc1
C       1.16428766     -0.63146662     -2.79232397
C       0.71077242      0.64810365     -2.09209136
C       0.06166816      0.46880973     -0.68209539
C      -1.32089864     -0.22574127     -0.82015861
O      -1.84307454     -0.46638772     -1.91040741
N      -1.93837561     -0.55214866      0.38345912
C      -3.21062419     -1.00933118      0.57113103
N      -3.80537041     -1.60748989     -0.48329359
O      -3.78158406     -0.88475652      1.64833286
C      -0.22529154      1.88689309     -0.13226947
O       0.00180729      2.93763185     -0.71873580
O      -0.76397322      1.82125642      1.12577773
C      -1.04949014      3.09480603      1.71099305
C       1.05508346     -0.29012588      0.23103095
C       0.97020700     -1.68216396      0.42347415
C       1.88693973     -2.35403818      1.23593276
C       2.91699546     -1.65436243      1.85619866
C       3.04014061     -0.28351606      1.65500891
C       2.12502992      0.39151147      0.84391053
H       2.01266211     -1.09196528     -2.27764572
H       1.49418871     -0.39678148     -3.81001092
H       0.36109337     -1.36914250     -2.86608779
H       1.58502943      1.30972479     -2.01846614
H       0.00359162      1.16394634     -2.75613019
H      -1.55546755     -0.14225157      1.22832895
H      -4.79394726     -1.79506161     -0.38943940
H      -3.47247156     -1.35874172     -1.41194926
H      -1.78434323      3.63647270      1.10753530
H      -0.13030513      3.67798889      1.82318095
H      -1.47471181      2.92232882      2.70343057
H       0.20104477     -2.27757008     -0.06609771
H       1.80093164     -3.42910975      1.37639645
H       3.63131254     -2.17971305      2.48492995
H       3.85554233      0.26200911      2.12409637
H       2.27160069      1.46038250      0.69405444
