40
CC(C)OC(=O)C1(S(=O)(=O)c2ccc(Cl)cc2)CCCC1
C       2.57838367      1.96390072      1.21679488
C       2.56250441      0.46887779      1.51224262
C       3.98072324     -0.08271654      1.58637445
O       1.89514369     -0.22720960      0.44188301
C       0.53840877     -0.28095326      0.49253411
O      -0.13329209      0.20719610      1.39374049
C      -0.05482711     -1.01484468     -0.69273483
S      -0.54662259      0.22986583     -1.86436198
O       0.58758935      1.09830039     -2.12525224
O      -1.20917429     -0.42684646     -2.97915784
C      -1.79508750      1.22778175     -1.07323555
C      -1.43971235      2.44301308     -0.47885731
C      -2.42684735      3.23677944      0.10919047
C      -3.75899505      2.82349404      0.08087142
Cl     -4.97269407      3.80487687      0.80441105
C      -4.11695018      1.62578956     -0.53917788
C      -3.13447947      0.82668869     -1.12778206
C       0.89169845     -2.04044265     -1.33644561
C       0.83232923     -3.25392211     -0.41413484
C      -0.53309602     -3.19431886      0.26578737
C      -1.20849718     -1.92237099     -0.24511382
H       3.02916964      2.16518594      0.23872655
H       3.13598145      2.51318636      1.98152887
H       1.56064606      2.36489816      1.18100069
H       2.06174773      0.27129863      2.46769471
H       3.95944727     -1.16163372      1.77500736
H       4.50869976      0.05948872      0.63683755
H       4.55455766      0.39944175      2.38356725
H      -0.40545431      2.77968723     -0.46457086
H      -2.15204968      4.17606085      0.58259005
H      -5.15838913      1.31566341     -0.57452071
H      -3.42491477     -0.09312470     -1.63089175
H       0.52792938     -2.33450485     -2.32942911
H       1.91793968     -1.68628957     -1.47469042
H       1.62631285     -3.20146185      0.33978519
H       0.97049284     -4.18622015     -0.97085019
H      -0.40620830     -3.15166839      1.35367339
H      -1.13729578     -4.07936927      0.04166286
H      -1.85680973     -2.18146961     -1.09122358
H      -1.84830820     -1.48210804      0.52652625
