42
CC12CCC3C(=CCc4cc(O)ccc43)C1CCC2O
C      -2.33136579     -1.44077812      1.46311275
C      -2.29065565     -0.44494851      0.29118404
C      -1.67094253     -1.13020984     -0.95226453
C      -0.15125809     -1.30292459     -0.84879182
C       0.56149855      0.04155765     -0.59802683
C      -0.03023692      0.68435014      0.64701709
C       0.72209037      1.03178517      1.70564980
C       2.20399224      0.84219555      1.78422350
C       2.84051817      0.25050102      0.55196880
C       4.23768228      0.08432160      0.53337664
C       4.86553173     -0.43169285     -0.59492279
O       6.21737327     -0.60194418     -0.64260728
C       4.12925395     -0.78242924     -1.71503145
C       2.74341335     -0.62404365     -1.70538240
C       2.07730378     -0.12338720     -0.57032386
C      -1.53362104      0.84845536      0.66927710
C      -2.07559608      1.91680257     -0.29603165
C      -3.45910191      1.42987437     -0.73237533
C      -3.69983453      0.11637014      0.01072440
O      -4.50763661     -0.75140376     -0.76283933
H      -2.79978372     -0.99357585      2.34723742
H      -2.90923060     -2.33396683      1.20198722
H      -1.32887691     -1.76538501      1.75903801
H      -1.88234698     -0.54713401     -1.85747648
H      -2.13295230     -2.11238861     -1.11291779
H       0.09483274     -2.01959561     -0.05476195
H       0.19764203     -1.75833481     -1.78326648
H       0.35321226      0.71305375     -1.44221439
H       0.25689425      1.46927457      2.58561493
H       2.42214277      0.19052314      2.63898507
H       2.66179698      1.81968279      1.97946035
H       4.82004403      0.36921085      1.40488048
H       6.59459518     -0.31497323      0.20463122
H       4.62978639     -1.17456399     -2.59539054
H       2.18452466     -0.89089739     -2.59950275
H      -1.84998062      1.14747820      1.68024108
H      -2.14184666      2.88961995      0.20447994
H      -1.44056067      2.05807374     -1.17691085
H      -3.49388189      1.29059486     -1.81935352
H      -4.23572946      2.16310948     -0.48847481
H      -4.23016972      0.33131323      0.94726691
H      -4.61852032     -1.57702394     -0.26148995
