36
C/C(=N\NC(=O)Nc1cc(F)cc(F)c1)c1ncccc1C(=O)O
C       1.10473762     -1.22205542      3.35454511
C       1.08615366     -0.40573450      2.08756399
N       0.22742028     -0.54040343      1.11720700
N      -0.68997618     -1.55001923      1.21121290
C      -1.69431336     -1.71098559      0.27078375
O      -2.44930572     -2.67467317      0.32218986
N      -1.71366923     -0.68012359     -0.63684602
C      -2.60358673     -0.45044867     -1.69063264
C      -2.47850207      0.76035906     -2.38076720
C      -3.35596034      1.06483282     -3.41963464
F      -3.23957933      2.23839438     -4.05575488
C      -4.35812938      0.18296165     -3.79589743
C      -4.46065900     -1.02668868     -3.12316669
F      -5.41166215     -1.89707349     -3.48649231
C      -3.60067115     -1.35023372     -2.07379358
C       2.12101249      0.65212651      1.97071741
N       2.06736509      1.60322585      2.94306764
C       2.90744486      2.65415370      2.80869934
C       3.79601608      2.80068487      1.75551961
C       3.84947881      1.79834271      0.78926430
C       2.99525505      0.69593087      0.89392432
C       3.10237472     -0.43435096     -0.03863161
O       3.02963208     -1.61027782      0.25710364
O       3.32803877     -0.02228835     -1.29791088
H       0.14963147     -1.10632214      3.87614316
H       1.91091602     -0.90693174      4.02641198
H       1.26136306     -2.27527372      3.10848223
H      -0.61033042     -2.27778988      1.91332859
H      -0.99510424      0.00336645     -0.41956138
H      -1.71837268      1.48633796     -2.11503416
H      -5.04515995      0.42910808     -4.59951587
H      -3.73025685     -2.31251272     -1.58883980
H       2.84689454      3.39831931      3.59687361
H       4.44785744      3.66622100      1.69686954
H       4.55582222      1.87353931     -0.03311079
H       3.36782450     -0.85371768     -1.81842452
