42
NS(=O)(=O)c1cc(C(=O)c2cccc(CN3CCOCC3)c2)cs1
N       6.55712905      2.27390397      0.68649128
S       5.79537755      1.29416711     -0.44320842
O       6.83247927      0.53631308     -1.10157892
O       4.88283297      2.14960042     -1.16599846
C       4.77829012      0.12390895      0.41012628
C       3.44428697     -0.21295658      0.27882912
C       3.02756415     -1.24317452      1.18981780
C       1.69645671     -1.83945614      1.33957813
O       1.37123308     -2.46716998      2.34390670
C       0.70154795     -1.67751226      0.25274958
C       1.02907971     -1.95453003     -1.07929261
C       0.06429315     -1.80295397     -2.07518114
C      -1.22713707     -1.38716229     -1.74301017
C      -1.57240459     -1.12444822     -0.40896244
C      -2.97631735     -0.68912129     -0.04230110
N      -3.01037232      0.61883538      0.63042607
C      -2.66558782      1.74252126     -0.26992214
C      -3.76584556      2.09624001     -1.28506206
O      -5.01348544      2.36360792     -0.63366161
C      -5.41886950      1.25113629      0.17218546
C      -4.34408495      0.88946328      1.21163640
C      -0.59835952     -1.28430399      0.58887065
C       4.08576620     -1.61480917      2.00199866
S       5.53432519     -0.78319777      1.64198782
H       7.56047395      2.08489386      0.67372487
H       6.34088254      3.25114824      0.48611220
H       2.80200210      0.27914985     -0.44357246
H       2.02300265     -2.30193318     -1.35035381
H       0.31524945     -2.01606161     -3.11185672
H      -1.96589829     -1.27613032     -2.53425763
H      -3.62093561     -0.71095909     -0.92872049
H      -3.36857160     -1.46146310      0.63332530
H      -1.71861713      1.56217421     -0.79013726
H      -2.49191809      2.62107964      0.36548745
H      -3.90889698      1.29986139     -2.02386046
H      -3.48220716      3.00132952     -1.83188638
H      -6.34302015      1.53724424      0.68469147
H      -5.65501709      0.40204061     -0.47906651
H      -4.67846261      0.04253458      1.82228489
H      -4.23285233      1.73566897      1.90214928
H      -0.85482722     -1.08954091      1.62974156
H       4.07141563     -2.35190518      2.79576985
