22
C[C@@H](Oc1cc(Cl)c(Cl)cc1Cl)C(=O)O
C      -2.92516191     -1.01485433     -0.19626762
C      -1.61867245     -0.42653022      0.33068225
O      -0.73561147     -0.35352667     -0.78687962
C       0.60597401     -0.16268114     -0.59398199
C       1.22705345     -0.03870887      0.65237323
C       2.61224500      0.16029623      0.73966813
Cl      3.30046311      0.30198668      2.31970264
C       3.38802172      0.23526595     -0.42146585
Cl      5.09797705      0.47541885     -0.38057597
C       2.77889669      0.11098256     -1.66933907
C       1.39851046     -0.08668368     -1.75293559
Cl      0.70178194     -0.23934989     -3.32928958
C      -1.90750155      0.93316411      0.97150588
O      -1.47484096      2.02182563      0.63025164
O      -2.70146201      0.83899191      2.06042069
H      -3.37519025     -0.35486972     -0.94693495
H      -2.74278277     -1.97730559     -0.68666215
H      -3.65511507     -1.16605392      0.60507938
H      -1.21535278     -1.10800070      1.08888332
H       0.66300612     -0.08475844      1.57777766
H       3.37525865      0.16814646     -2.57669739
H      -2.79749698      1.76724480      2.36468496
