8
O=C([O-])C(=O)[O-].[Ce].[Ce]
O      -1.43876201      0.10190824     -0.98758425
C      -0.72632975     -0.00443786      0.03172500
O      -1.38273957     -0.13346236      1.24671321
C       0.72925633      0.00528725     -0.03975791
O       1.42568541     -0.10321430      1.00034516
O       1.39288959      0.13391903     -1.25144121
Ce      0.00000000      0.00000000      0.00000000
Ce      0.00000000      0.00000000      0.00000000
