41
CC(C)C1OCC2(CO1)COC(C(C)C)OC2
C       3.54834291     -1.84577462     -0.75521852
C       3.82533575     -0.35125218     -0.95343313
C       5.10612605      0.03961760     -0.21394789
C       2.63842276      0.52359546     -0.50748162
O       2.36865242      0.29275563      0.87505944
C       1.28731300      1.09739492      1.32941353
C       0.01994653      0.81773871      0.52172201
C       0.36602872      0.98010155     -0.96604380
O       1.50795744      0.19631159     -1.31201742
C      -1.09374506      1.78503005      0.92297553
O      -2.31621148      1.45242428      0.27584223
C      -2.72026258      0.11853848      0.58971706
C      -4.06131622     -0.16291814     -0.11408461
C      -4.61522683     -1.53224128      0.28368975
C      -3.94275815     -0.07559294     -1.63984555
O      -1.74674052     -0.82684028      0.15685922
C      -0.48212993     -0.61033782      0.78231219
H       4.39029101     -2.44451285     -1.11931166
H       3.39569302     -2.09128112      0.30103438
H       2.65748390     -2.15955921     -1.30877261
H       3.98238218     -0.18952166     -2.02787770
H       5.33250868      1.10039427     -0.36445314
H       5.95894742     -0.53852995     -0.58551319
H       5.02229750     -0.14062347      0.86298536
H       2.89906478      1.57977030     -0.66134642
H       1.57992173      2.15324352      1.26459579
H       1.13234897      0.87575908      2.39130620
H      -0.45899770      0.66376170     -1.61327408
H       0.57835761      2.02824331     -1.21257962
H      -1.25581442      1.78220259      2.00850226
H      -0.83947456      2.81347907      0.64296143
H      -2.86413676      0.02959541      1.67530486
H      -4.77880946      0.60603362      0.20079496
H      -5.60053601     -1.69621057     -0.16563916
H      -3.95791578     -2.34482842     -0.04334783
H      -4.72919129     -1.60371016      1.37045195
H      -3.58567983      0.91082664     -1.95283964
H      -4.91817154     -0.23770070     -2.11124501
H      -3.25164684     -0.82779199     -2.03459735
H       0.21123279     -1.36353090      0.39299125
H      -0.58989021     -0.80405953      1.85717151
