15
Sc1cnc2ncncc2n1
S       3.70708060      0.08872203     -0.07017274
C       1.97480489     -0.25057517     -0.07079855
C       1.47601895     -1.53348957     -0.20395965
N       0.14727539     -1.81171604     -0.20645539
C      -0.70170394     -0.78764612     -0.07320504
N      -2.00691803     -1.05368232     -0.07484246
C      -2.84155245     -0.01863012      0.05932889
N      -2.48233582      1.26071005      0.19510469
C      -1.15126926      1.48477119      0.19147308
C      -0.18487090      0.51345071      0.06160537
N       1.14516978      0.80174324      0.06520455
H       3.55454107      1.41155180      0.08154304
H       2.12892602     -2.39318434     -0.31452682
H      -3.90414591     -0.23815379      0.05766353
H      -0.86102039      2.52612846      0.30203750
