16
c1ccc2cnncc2c1
C       2.13182003     -0.13634099      0.06622788
C       1.75503543      1.19040618      0.26536018
C       0.40372687      1.54093144      0.26611912
C      -0.58545446      0.56064254      0.06649044
C      -1.94812724      0.84572056      0.05619084
N      -2.90276234     -0.09142889     -0.13503261
N      -2.53584074     -1.38344759     -0.32894821
C      -1.22351058     -1.70582712     -0.32676832
C      -0.20606130     -0.77529120     -0.13401755
C       1.15862400     -1.11724187     -0.13283567
H       3.18486354     -0.40767189      0.06594126
H       2.51438863      1.95323253      0.42027846
H       0.12690715      2.58127257      0.42302921
H      -2.32635701      1.85139813      0.20329029
H      -1.01728804     -2.75815228     -0.48853159
H       1.47003606     -2.14820211     -0.28679374
