35
Cc1cc(Cc2ccc(N)c(C)c2)ccc1N
C       4.60906007     -1.37257621     -0.58859109
C       3.48328921     -0.42912436     -0.26484210
C       2.30732194     -0.48072041     -1.03613049
C       1.24263461      0.39962999     -0.80034934
C      -0.01015343      0.33859593     -1.64459403
C      -1.25300408     -0.05401888     -0.87835239
C      -1.37520008     -1.33072836     -0.32293853
C      -2.52790424     -1.68807095      0.37984589
C      -3.56757012     -0.77227489      0.57986289
N      -4.74813744     -1.21389143      1.19918964
C      -3.48511471      0.49035538     -0.03249592
C      -4.61231840      1.48223814      0.05615995
C      -2.31824252      0.84529042     -0.73454656
C       1.37449617      1.35338308      0.21275163
C       2.53630971      1.40686300      0.98583462
C       3.57605148      0.48909693      0.79547921
N       4.76493987      0.65303208      1.52486212
H       4.77359915     -2.06421832      0.24382436
H       4.39092717     -1.97088760     -1.47963119
H       5.52959757     -0.81456890     -0.78827373
H       2.22750501     -1.21039334     -1.83990030
H      -0.14708078      1.31734332     -2.12301174
H       0.11871422     -0.37123430     -2.47230960
H      -0.57593864     -2.05916830     -0.43750937
H      -2.60499529     -2.69622652      0.77837852
H      -4.59931711     -1.97778195      1.85077859
H      -5.29791838     -0.46733641      1.60984770
H      -5.53651524      1.04629052     -0.33683638
H      -4.76531525      1.78834697      1.09599125
H      -4.40326271      2.38443185     -0.52852429
H      -2.24615612      1.83332951     -1.18557083
H       0.57570050      2.06587141      0.40473577
H       2.62055947      2.17576949      1.74927026
H       4.62570511      1.09703222      2.42692887
H       5.31773329     -0.19367912      1.60066657
