29
CCn1cc(C(=O)O)c(=O)c2ccc(C)nc21
C      -0.10148064     -3.07524077      0.54070013
C      -0.43457775     -2.27994386     -0.71385825
N      -0.78668725     -0.89444436     -0.38090406
C      -2.08257784     -0.48386120     -0.12170134
C      -2.45668603      0.75646052      0.22471761
C      -3.88558936      1.04491878      0.46487029
O      -4.76615108      0.20203648      0.37065121
O      -4.14980758      2.32613656      0.80102129
C      -1.38199683      1.76446415      0.34471948
O      -1.65903566      2.92440176      0.64718784
C       0.01323504      1.34285168      0.10132452
C       1.05749608      2.26031601      0.22879555
C       2.35953937      1.83381699      0.00113072
C       2.57184575      0.50507837     -0.34549810
C       3.96367805      0.00668900     -0.59788026
N       1.56070877     -0.39044751     -0.47172663
C       0.28654336      0.01710170     -0.25265142
H      -0.94374848     -3.07701800      1.24058589
H       0.12664698     -4.11358439      0.28061333
H       0.76559419     -2.65816871      1.06255614
H       0.39319208     -2.33158958     -1.43172829
H      -1.28268291     -2.76096268     -1.21821475
H      -2.82003790     -1.27900761     -0.22544696
H      -3.35006226      2.90573249      0.84105064
H       0.86074702      3.29356477      0.50311644
H       3.19007688      2.52680187      0.09400782
H       4.57913051      0.13419862      0.29803973
H       4.41735374      0.55660074     -1.42822718
H       3.95533374     -1.05690183     -0.85725140
