14
S=C=Nc1cccc(Br)c1
S       4.10565951     -1.11818832      0.29183878
C       2.71355040     -0.61220168     -0.73185937
N       1.81328111     -0.28190180     -1.41110714
C       0.64554253     -0.05102022     -0.66425334
C       0.36522985      1.22769410     -0.16187035
C      -0.80761243      1.46899267      0.55679864
C      -1.71930768      0.43531242      0.76678374
C      -1.45642159     -0.83192552      0.24927274
Br     -2.70054948     -2.22980910      0.51916700
C      -0.28629214     -1.07790811     -0.46882326
H       1.06410030      2.04305227     -0.33500544
H      -1.01205381      2.46329169      0.94653487
H      -2.63184692      0.62877004      1.32519609
H      -0.09327965     -2.06415845     -0.88267297
