15
O=C(O)CSCC(=O)O
O       2.95485469     -0.75744832      0.64290755
C       1.73861596     -0.84445394      0.60053869
O       0.99808841     -0.49527739      1.67426867
C       0.90399494     -1.28985964     -0.57123257
S       0.58248219      0.07327948     -1.73557086
C      -0.39531488      1.19901746     -0.68527437
C      -1.70491032      0.61028865     -0.21357389
O      -2.18564010     -0.48245376     -0.46182610
O      -2.37886134      1.47197047      0.58092682
H       1.66741271     -0.23716082      2.34418026
H       1.46207260     -2.07231638     -1.09645574
H      -0.02009775     -1.75869136     -0.22351653
H       0.20169333      1.51538106      0.17352690
H      -0.62564369      2.08207787     -1.28965765
H      -3.19874676      0.98564660      0.81238403
