67
CC#C[C@]1(O)CC[C@H]2[C@@H]3CCC4=CC(=O)CCC4=C3[C@@H](c3ccc(N(C)C)cc3)C[C@@]21C
C      -5.05208654     -2.49673465     -2.84164384
C      -4.21541858     -2.52066306     -1.64188838
C      -3.52379015     -2.53245643     -0.65847765
C      -2.67194668     -2.55491949      0.55094631
O      -2.22182561     -3.88807200      0.74135981
C      -3.48958086     -2.08314874      1.78225359
C      -3.11021194     -0.60713468      2.02278258
C      -2.22453111     -0.23411030      0.83412065
C      -1.29417501      0.97565002      0.96608765
C      -2.10564725      2.21724689      1.37934609
C      -1.30718720      3.48746557      1.14715755
C      -0.94991590      3.58453492     -0.31037564
C      -1.15878282      4.71879323     -0.99909220
C      -0.85857932      4.80230726     -2.44717999
O      -1.07790517      5.85154004     -3.04947538
C      -0.35620430      3.56357206     -3.14297294
C       0.43393495      2.69476961     -2.17400158
C      -0.36783495      2.38592558     -0.92285113
C      -0.49579798      1.16339274     -0.34223356
C       0.16580084     -0.11561370     -0.91076462
C       1.59977872     -0.36219660     -0.42875684
C       2.34138042     -1.42188979     -0.96918635
C       3.66662673     -1.65754909     -0.57870246
C       4.31998540     -0.84379610      0.35683915
N       5.65763715     -1.10712536      0.69632013
C       6.42040826     -0.04152396      1.34507706
C       5.86656207     -2.43721524      1.27973298
C       3.58653421      0.23049769      0.87147523
C       2.25596933      0.46716124      0.49036562
C      -0.76800366     -1.36421987     -0.83591057
C      -1.48153415     -1.54556969      0.51604849
C      -0.43784873     -1.95665214      1.59306195
H      -4.43633526     -2.52502129     -3.74552739
H      -5.65884414     -1.58666123     -2.87397546
H      -5.72786557     -3.35724376     -2.86259765
H      -3.00934966     -4.45713056      0.71661813
H      -4.57080857     -2.17917255      1.62380184
H      -3.25354066     -2.67719690      2.67318928
H      -2.57157868     -0.50429558      2.97187135
H      -4.00214376      0.02599218      2.08010833
H      -2.90883602     -0.00545759      0.00071722
H      -0.56722968      0.80126568      1.76831778
H      -3.04662784      2.26836463      0.81602302
H      -2.37730258      2.14740217      2.43944143
H      -1.89769940      4.35160831      1.47437080
H      -0.39149795      3.47767720      1.75178850
H      -1.57969994      5.61184499     -0.55272281
H      -1.21692386      3.02371786     -3.55387715
H       0.29390211      3.86768738     -3.97105254
H       0.76701066      1.80563377     -2.71184022
H       1.34843715      3.22436222     -1.87139887
H       0.28293906      0.02975400     -1.99193212
H       1.90738616     -2.07530342     -1.72219475
H       4.20481249     -2.47452798     -1.05396334
H       6.09566779      0.11441697      2.38015709
H       7.48518779     -0.30122688      1.36489228
H       6.33913738      0.89950409      0.78933713
H       5.50536963     -3.24161075      0.63021735
H       5.37110290     -2.51895427      2.25476087
H       6.93807216     -2.61641779      1.43018073
H       4.02553999      0.91048617      1.59441630
H       1.75334237      1.32284887      0.93404267
H      -1.51877245     -1.22421135     -1.62579924
H      -0.24205649     -2.28745486     -1.10322120
H       0.12888045     -2.83559232      1.26479918
H      -0.90086300     -2.21628732      2.55025816
H       0.28537728     -1.17106606      1.81133158
