18
Nc1ccc(O)c(C(=O)O)c1
N       2.71052353      1.37726723      0.01324912
C       1.58643984      0.56729328     -0.17693342
C       1.46986391     -0.21320243     -1.32924909
C       0.30131617     -0.93259000     -1.58896329
C      -0.78011219     -0.84205140     -0.71707705
O      -1.88124710     -1.58122603     -1.05205390
C      -0.70638677     -0.01991516      0.41322861
C      -1.81651986      0.15626178      1.37983453
O      -1.79655102      0.84737498      2.38107489
O      -2.91891729     -0.55038868      1.05277733
C       0.47584940      0.69651759      0.66202798
H       3.55738256      1.02221856     -0.42031281
H       2.86167676      1.66351923      0.97597168
H       2.29133265     -0.26984855     -2.03895299
H       0.23048060     -1.55214965     -2.47909043
H      -2.56869619     -1.40788578     -0.37457169
H      -3.54484513     -0.32299410      1.77728540
H       0.52841012      1.36179914      1.52175513
