22
CCC(CO)(CO)C(=O)O
C      -1.21440909     -0.19131000     -1.79283212
C      -1.26590264      0.14294268     -0.30834658
C       0.10103453      0.23640269      0.42144876
C       0.90644667     -1.07405471      0.35334858
O       0.12009469     -2.16543376      0.85459768
C       0.96706466      1.39369215     -0.12160155
O       1.56611037      1.06566900     -1.37214657
C      -0.20808104      0.56771612      1.88321634
O      -0.11997420      1.68881891      2.36655672
O      -0.64964044     -0.48146386      2.61643686
H      -2.23288116     -0.28495892     -2.18491478
H      -0.70323615     -1.13970120     -1.97855620
H      -0.71943231      0.59607906     -2.36705805
H      -1.89849927     -0.60767790      0.18340803
H      -1.80346883      1.09362225     -0.18986040
H       1.20257031     -1.32273952     -0.67039531
H       1.81139640     -1.01290600      0.96833887
H       0.60007376     -2.98092424      0.60753160
H       0.36945134      2.30324124     -0.25391556
H       1.78354638      1.62970882      0.57138268
H       2.02722972      1.86642942     -1.68182614
H      -0.63949371     -1.32315221      2.09518714
