22
Clc1ccc(-c2ccc(Cl)c(Cl)c2Cl)cc1
Cl     -5.25624240      0.23160387      0.20358801
C      -3.53903439      0.15597511      0.13704194
C      -2.91862720     -0.75635141     -0.71293623
C      -1.52330157     -0.81844937     -0.76562021
C      -0.73778795      0.03215474      0.02897133
C       0.72969714     -0.03871228     -0.02122871
C       1.38583226     -0.91498940      0.85978182
C       2.77543940     -1.02526041      0.85839593
C       3.53829145     -0.26024395     -0.02546801
Cl      5.25568856     -0.46216901      0.04302065
C       2.91403593      0.62405814     -0.91779061
Cl      3.87455394      1.57211955     -2.01442833
C       1.50875384      0.73340565     -0.91407069
Cl      0.70762023      1.82411854     -2.01201653
C      -1.38188018      0.94353204      0.88130642
C      -2.77715053      1.00632046      0.93463667
H      -3.51195579     -1.41860366     -1.33778873
H      -1.05107425     -1.53294929     -1.43732208
H       0.80772905     -1.52085683      1.55753093
H       3.25769591     -1.71186345      1.55143690
H      -0.79828033      1.61665539      1.50661626
H      -3.26000312      1.72050558      1.59634327
