15
O=C(O)c1ccc(I)cc1
O       2.63450775      1.37923801     -0.70909504
C       2.11759562      0.41727655     -0.17207919
O       2.86011004     -0.54377144      0.40489799
C       0.66079441      0.15862767     -0.07005204
C      -0.22008330      1.09048216     -0.63467484
C      -1.60114754      0.88761729     -0.56231770
C      -2.10099495     -0.24817603      0.07529117
I      -4.15425297     -0.55149203      0.18385211
C      -1.23177455     -1.18205575      0.64070470
C       0.14984297     -0.97893762      0.56821951
H       3.78276448     -0.24466467      0.26241583
H       0.16618756      1.97796588     -1.13302645
H      -2.26944796      1.62150751     -1.00617303
H      -1.61185996     -2.07025525      1.13966681
H       0.81775841     -1.71336228      1.01237019
