45
NC(=O)c1nc(-c2ccccc2)n(-c2ccc(Cl)c(COCC(F)(F)C(F)(F)F)c2)n1
N      -4.67451510      3.94759037     -2.82421413
C      -4.78310390      3.41592221     -1.56357299
O      -5.70456335      3.74732710     -0.82333078
C      -3.71797778      2.45546461     -1.21102076
N      -3.65263759      1.79961958     -0.00925088
C      -2.59090135      1.02160362     -0.11150528
C      -2.23818895      0.00289199      0.87667611
C      -2.16197912      0.35182759      2.23196309
C      -1.82347560     -0.60348719      3.19246097
C      -1.57307720     -1.91970000      2.80830596
C      -1.67520674     -2.28575859      1.46729545
C      -2.01656882     -1.33179149      0.50561610
N      -1.93724981      1.31445375     -1.30740968
C      -0.65239559      0.93487631     -1.80055498
C      -0.36738493      1.10738362     -3.16247134
C       0.87705209      0.73575459     -3.67565374
C       1.85615859      0.20361411     -2.83385642
Cl      3.36288606     -0.25296416     -3.54569879
C       1.61265108      0.05173403     -1.45976342
C       2.67253251     -0.53053087     -0.54605326
O       2.28109883     -0.43063532      0.82508094
C       3.32480133     -0.74427785      1.76107616
C       3.78115414     -2.20458154      1.75050723
F       4.43515299     -2.46478146      0.58173856
F       2.69807260     -3.02882976      1.77475223
C       4.69850954     -2.47858710      2.93709100
F       5.79097245     -1.67495086      2.91262162
F       4.07355196     -2.25076755      4.11843813
F       5.14146082     -3.75693876      2.95744004
C       0.34805021      0.42876999     -0.95862430
N      -2.72258184      2.13760493     -2.05858339
H      -5.35877133      4.62053549     -3.13287724
H      -3.90148365      3.67249002     -3.41686426
H      -2.36976819      1.37383498      2.54477213
H      -1.76334857     -0.32088679      4.24047449
H      -1.31101644     -2.66388212      3.55621470
H      -1.49448679     -3.31609219      1.17046779
H      -2.10738502     -1.64365994     -0.53273279
H      -1.11024765      1.51249759     -3.84758275
H       1.07426690      0.86111331     -4.73802276
H       2.80220243     -1.58608082     -0.80352923
H       3.61255740      0.01575242     -0.68331049
H       4.16983149     -0.06900546      1.58253287
H       2.90901925     -0.50169809      2.74492396
H       0.18633269      0.34722569      0.11270622
