19
C[N+]1([O-])CCOCC1
C       2.09899795     -0.47151273     -0.24386301
N       0.68045059     -0.12687570      0.11213905
O       0.59673543     -0.01060535      1.47688989
C      -0.24785213     -1.21815270     -0.38234612
C      -1.70337628     -0.81837412     -0.18361051
O      -1.98355835      0.40124682     -0.88751555
C      -1.18890000      1.46785101     -0.34683801
C       0.29137298      1.17803810     -0.55341736
H       2.34230027     -1.41482719      0.25268167
H       2.17047495     -0.56515906     -1.33028968
H       2.73621321      0.33563107      0.12771615
H      -0.02136455     -1.34753772     -1.44669662
H       0.00419981     -2.12740258      0.17280534
H      -2.35901996     -1.59248109     -0.59424768
H      -1.95677760     -0.69484353      0.87557582
H      -1.43841828      1.60865116      0.71111442
H      -1.46413675      2.38418233     -0.87817010
H       0.92375744      1.95891170     -0.11892434
H       0.51890129      1.05325957     -1.61809627
