24
CCCOC(=O)c1ccccc1
C       3.35435645      1.17220433     -0.02834808
C       3.20336833     -0.11268099      0.77373480
C       2.17827775     -1.06169790      0.16126868
O       0.88852917     -0.43727059      0.18994013
C      -0.10678003     -1.18749790     -0.34494126
O       0.01870686     -2.30567433     -0.81903026
C      -1.40376822     -0.46023431     -0.28056944
C      -2.54598065     -1.09912149     -0.78290450
C      -3.78589585     -0.45805955     -0.74573424
C      -3.89183501      0.82359093     -0.20736082
C      -2.76062989      1.46671511      0.29428009
C      -1.51815593      0.82866096      0.25896105
H       4.11668802      1.81292292      0.42604883
H       2.41645853      1.73560283     -0.05910552
H       3.66069159      0.95751997     -1.05709954
H       2.89763236      0.14910014      1.79339806
H       4.17409095     -0.61677435      0.83477041
H       2.14490711     -1.98619089      0.74935561
H       2.45359559     -1.29924177     -0.87311788
H      -2.47363133     -2.09968671     -1.20544564
H      -4.66783700     -0.95932838     -1.13697610
H      -4.85778270      1.32221719     -0.17880280
H      -2.84560820      2.46641133      0.71350793
H      -0.64939790      1.34851347      0.65500546
