30
Cc1ccc(C(=O)N(O)c2ccc(Cl)cc2)cc1
C       4.26554818      0.86142014     -1.39398820
C       3.10118602      0.45171993     -0.53997061
C       2.92373047      1.01464357      0.73065720
C       1.86079211      0.61051566      1.54082788
C       0.96162378     -0.35674021      1.08069172
C      -0.14310462     -0.78083538      1.97034860
O       0.11323498     -0.99661576      3.15895790
N      -1.41071889     -1.02926309      1.45392008
O      -2.25244559     -1.71339661      2.38011384
C      -2.10544615     -0.45769944      0.35886671
C      -1.66837669      0.69566440     -0.30617308
C      -2.39238713      1.22262049     -1.38379423
C      -3.56896837      0.60739001     -1.79998316
Cl     -4.45437949      1.25640632     -3.12314517
C      -4.03359147     -0.52553203     -1.14222774
C      -3.30785465     -1.04836979     -0.06649455
C       1.15727329     -0.95607782     -0.16881210
C       2.22158290     -0.54799334     -0.97588946
H       5.13170957      0.23008035     -1.17339219
H       4.53369593      1.90750936     -1.21236623
H       4.02095739      0.76910247     -2.45740395
H       3.61801159      1.76669506      1.10040622
H       1.73885805      1.04685954      2.53006499
H      -1.71136303     -1.67363910      3.19838460
H      -0.78391360      1.23917872      0.00979917
H      -2.03483008      2.11957064     -1.88335829
H      -4.95578639     -1.00825101     -1.45428465
H      -3.68726250     -1.93855180      0.43227352
H       0.49636723     -1.74559065     -0.51848726
H       2.36585717     -1.02082062     -1.94551006
