22
CC1=C(C)S(=O)(=O)CCS1(=O)=O
C      -1.56954356      1.85011705     -0.44649552
C      -0.52702196      0.79393991     -0.17886529
C      -0.82553046     -0.47177673      0.18976649
C      -2.22800373     -0.94558206      0.47710649
S       0.36818207     -1.71026213      0.49704578
O      -0.03669241     -2.91571738     -0.19834533
O       0.60521942     -1.73496096      1.92758557
C       1.87036520     -1.17756445     -0.24964425
C       2.20393784      0.20711073      0.21680571
S       1.09196558      1.36246966     -0.50881858
O       1.29283485      1.28285836     -1.94288773
O       1.28460887      2.61847886      0.18827810
H      -1.68000734      2.49925600      0.42787045
H      -2.54775288      1.43050268     -0.69637854
H      -1.28607973      2.47419192     -1.30145566
H      -2.63255016     -1.47204773     -0.39310929
H      -2.24328378     -1.63353864      1.32990197
H      -2.90809755     -0.13097764      0.74036182
H       2.64511886     -1.88571316      0.06151297
H       1.75848058     -1.25150081     -1.33559223
H       2.15396919      0.31959861      1.30405784
H       3.20988110      0.49111791     -0.10870076
