24
CN(C)CCOCCO
C      -2.61710648      0.80305644      0.76618567
N      -2.02290017     -0.52427903      0.93484775
C      -2.89519602     -1.53728613      0.33436979
C      -0.67486996     -0.60487221      0.34224628
C       0.38555593      0.23006378      1.08348678
O       1.70796049     -0.04229439      0.60240221
C       2.01260824      0.64321854     -0.61871295
C       3.46288652      0.33481638     -0.97759815
O       4.32372531      0.79690078      0.06195423
H      -2.68608692      1.09407904     -0.28819985
H      -2.04158760      1.56525996      1.30049005
H      -3.62540514      0.82996769      1.19529971
H      -3.01574458     -1.39136577     -0.74527371
H      -2.49367902     -2.54244815      0.50502719
H      -3.88740653     -1.51628070      0.79904496
H      -0.32886349     -1.64721036      0.36399175
H      -0.70272114     -0.32543088     -0.71835691
H       0.18453267      1.30513058      1.02302632
H       0.38027592     -0.04395400      2.14444712
H       1.35096464      0.30492941     -1.42106497
H       1.88984482      1.72049535     -0.46174069
H       3.74944978      0.82912892     -1.90980679
H       3.61886002     -0.74354286     -1.08119963
H       3.92490272      0.46191762      0.88931093
