20
NNC(=O)c1ccc([N+](=O)[O-])cc1
N       4.02945172     -0.94844563     -0.08904141
N       2.62472257     -0.93013727      0.06271171
C       1.95071558      0.27681855     -0.08420736
O       2.52492489      1.34428694     -0.28212891
C       0.46324385      0.22075711     -0.02826112
C      -0.22084830     -0.77878304      0.67899423
C      -1.62044820     -0.78501062      0.71012479
C      -2.33564440      0.21659369      0.03776953
N      -3.80436006      0.21007399      0.07101965
O      -4.36049138     -0.70232726      0.69847647
O      -4.39865633      1.11448473     -0.53180895
C      -1.66025242      1.22648694     -0.65887077
C      -0.26214188      1.22684570     -0.68480704
H       4.43274637     -0.57939111      0.77848368
H       4.26406239     -0.21841387     -0.77597432
H       2.12918922     -1.81593462     -0.00521571
H       0.31452930     -1.54381529      1.23589054
H      -2.13468205     -1.56654819      1.26739524
H      -2.19962834      2.01604073     -1.17913517
H       0.26356747      2.01641852     -1.22141508
