17
COc1cc(Cl)c(Cl)cc1O
C       2.63225078     -0.64160782      0.00807213
O       1.74710296      0.44782419      0.24695822
C       0.40868890      0.20248723      0.08479381
C      -0.16792638     -1.00944924     -0.29098776
C      -1.56149264     -1.11269156     -0.41774346
Cl     -2.20640779     -2.64764582     -0.88766241
C      -2.38133315     -0.00315454     -0.16868930
Cl     -4.10182517     -0.07281485     -0.30919702
C      -1.80774216      1.21064008      0.20739235
C      -0.42619230      1.29916191      0.32923154
O       0.11019254      2.50212077      0.69969661
H       2.56640204     -0.98211727     -1.03051117
H       3.65286809     -0.28575586      0.17840324
H       2.44391803     -1.46273898      0.70750939
H       0.43750225     -1.88729102     -0.49107972
H      -2.42284553      2.08366981      0.40547142
H       1.07683954      2.35936296      0.72834212
