27
O=C(O)c1ccccc1C(=O)c1ccc(Cl)cc1
O      -0.99445078      2.14917336      1.03560973
C      -1.99945369      1.53555383      0.73520456
O      -3.22479261      2.06989560      0.88129012
C      -2.05868827      0.15824238      0.20423699
C      -3.12610349     -0.68257650      0.55294471
C      -3.16448071     -2.00094517      0.09058138
C      -2.14296346     -2.48838568     -0.72493462
C      -1.07942220     -1.65946171     -1.08186354
C      -1.03397928     -0.34161052     -0.60643322
C       0.06924025      0.51406692     -1.07029292
O      -0.14188709      1.22849061     -2.04532697
C       1.40462948      0.46873097     -0.41038164
C       2.44687207      1.21929709     -0.97328479
C       3.71930272      1.20766609     -0.39570450
C       3.95131059      0.44724111      0.74791225
Cl      5.51657489      0.42942120      1.46096588
C       2.92199585     -0.29960305      1.31950506
C       1.64737020     -0.28988918      0.74283309
H      -3.04954070      2.98377569      1.19093428
H      -3.93092025     -0.31737777      1.18780675
H      -3.99760160     -2.64614843      0.36172055
H      -2.18412621     -3.51060140     -1.09503019
H      -0.30121653     -2.03404884     -1.74343075
H       2.26926706      1.82075784     -1.86344716
H       4.51767587      1.79545696     -0.84091629
H       3.10318241     -0.88634703      2.21656539
H       0.86220550     -0.87077434      1.21799577
