29
O=C(Nc1ccc([N+](=O)[O-])cc1Cl)c1cc(Cl)ccc1O
O      -0.47353364      2.09487722     -0.29515452
C      -0.79525965      0.91076455     -0.27317053
N       0.06912828     -0.14413892     -0.06508590
C       1.46483980     -0.11109412      0.16141961
C       2.20329494      1.07683271      0.20748868
C       3.58509369      1.05557957      0.43514485
C       4.23994829     -0.16635332      0.61941842
N       5.68795410     -0.18979630      0.85805601
O       6.28567639      0.89463273      0.88761988
O       6.22585431     -1.29476273      1.01578399
C       3.52525921     -1.36665732      0.57802039
C       2.14656295     -1.33130024      0.34998456
Cl      1.30340169     -2.84430698      0.30725391
C      -2.24154248      0.56109731     -0.48798218
C      -3.12995508      1.63002130     -0.70095801
C      -4.48742844      1.39196380     -0.90826528
Cl     -5.55930745      2.71227827     -1.16716262
C      -4.98505027      0.09178534     -0.90770456
C      -4.11917567     -0.98150680     -0.69814482
C      -2.75593385     -0.74716562     -0.48965802
O      -1.93272098     -1.82309878     -0.28692177
H      -0.35150975     -1.07412711     -0.07533108
H       1.73292259      2.04639129      0.06933511
H       4.12608924      2.00023733      0.46421356
H       4.02442977     -2.32268597      0.72003294
H      -2.76087782      2.65434760     -0.70516413
H      -6.04472334     -0.09073598     -1.06973839
H      -4.52590233     -1.98922104     -0.70115111
H      -2.45753450     -2.64385776     -0.32104271
