39
CCC(CC)Nc1c([N+](=O)[O-])cc(C)c(C)c1[N+](=O)[O-]
C      -3.38631775      0.89690998      1.59356481
C      -2.18835452      0.01568573      1.26785126
C      -1.99346109     -0.24361975     -0.24028845
C      -3.18843864     -1.00507185     -0.84926433
C      -3.06047667     -1.21105973     -2.35414212
N      -0.77557901     -1.05702288     -0.45188152
C       0.48023631     -0.42751563     -0.38396662
C       0.92203259      0.47826508     -1.36069630
N       0.15694111      0.68755142     -2.57286661
O      -0.45375228      1.76218431     -2.66686778
O       0.22668218     -0.18556757     -3.44752811
C       2.13887540      1.17428290     -1.27421611
C       2.99451558      0.97581006     -0.18371033
C       4.28947844      1.74412362     -0.13536323
C       2.63343707      0.04229801      0.81126430
C       3.55699581     -0.21774723      1.97954306
C       1.36921431     -0.60886416      0.70523535
N       0.94817575     -1.48985169      1.78937367
O       0.66110689     -2.65822682      1.49231898
O       0.88048986     -1.00200904      2.92599785
H      -3.35574478      1.82988141      1.02221303
H      -4.33126053      0.38847930      1.38291177
H      -3.38359741      1.15216069      2.65836156
H      -2.28180383     -0.93495369      1.80741517
H      -1.29773290      0.51445700      1.66759480
H      -1.90849998      0.72218517     -0.74917036
H      -3.29960945     -1.98320019     -0.36502713
H      -4.11651538     -0.45161198     -0.67171696
H      -3.95751409     -1.70416613     -2.74238143
H      -2.20154951     -1.84150275     -2.60275297
H      -2.95106982     -0.25337361     -2.87250048
H      -0.81743136     -1.94088017      0.06751351
H       2.41998978      1.86446964     -2.07009069
H       4.30691154      2.54704829     -0.88030515
H       4.42123123      2.21543143      0.84392904
H       5.13219142      1.07660059     -0.34032497
H       3.50447454     -1.26061273      2.30834551
H       3.30033595      0.44162384      2.81425826
H       4.60539326     -0.05259086      1.71373713
