30
NS(=O)(=O)c1ccc(CCCCO)cc1
N       4.65551501      1.58418913      0.55246522
S       4.62141064      0.07403789     -0.18007351
O       5.20217320     -0.84220578      0.77373378
O       5.16998088      0.26341492     -1.50289068
C       2.88549421     -0.23415465     -0.30512014
C       2.19673774      0.14921633     -1.45816958
C       0.83069556     -0.11781153     -1.56440396
C       0.15241149     -0.77833633     -0.52960929
C      -1.32771804     -1.05126320     -0.64013778
C      -2.15964403      0.08163147     -0.03483748
C      -3.65893456     -0.20175554     -0.16700483
C      -4.50973214      0.92590752      0.40607726
O      -4.28831470      1.06529174      1.80212380
C       0.85938728     -1.16190595      0.61949078
C       2.22541688     -0.89764038      0.73164565
H       5.10738545      1.51659811      1.46447631
H       5.08685357      2.26350434     -0.07439179
H       2.71190563      0.65375013     -2.27229454
H       0.29710730      0.19055891     -2.46117767
H      -1.59384039     -1.19391365     -1.69522272
H      -1.55972942     -2.00034810     -0.14030517
H      -1.89601347      0.20966449      1.02238080
H      -1.92089643      1.02795207     -0.53661330
H      -3.89119526     -1.13558737      0.35910560
H      -3.91618417     -0.34233377     -1.22316847
H      -4.27086723      1.87927030     -0.07547131
H      -5.57342243      0.72306876      0.24568856
H      -4.54633356      0.22879351      2.22540161
H       0.34757666     -1.67084174      1.43382994
H       2.76277433     -1.20875163      1.62450441
