12
Clc1cc(Cl)c(Cl)c(Cl)c1Cl
Cl      2.94347297     -1.11615392     -0.04325091
C       1.33397871     -0.48196343     -0.01842409
C       0.28982529     -1.40600649     -0.06809793
C      -1.03495585     -0.96866266     -0.05183522
Cl     -2.26283097     -2.18579195     -0.11668138
C      -1.32933373      0.40136647      0.01447376
Cl     -2.98584510      0.92933910      0.03387834
C      -0.27528733      1.33547972      0.06468346
Cl     -0.62664610      3.03999821      0.14723840
C       1.06256588      0.89278388      0.04820849
Cl      2.37564823      2.03086124      0.10949849
H       0.50940799     -2.47125019     -0.11969139
