22
Clc1cc(Cl)c(-c2cc(Cl)ccc2Cl)c(Cl)c1
Cl     -5.26672604      0.16778848      0.16613747
C      -3.54847823      0.11379128      0.11544941
C      -2.82973562      1.27222632     -0.15532256
C      -1.43291871      1.22684278     -0.19705854
Cl     -0.60616360      2.70960523     -0.54444219
C      -0.73009064      0.02498469      0.03118645
C       0.74539976     -0.01926841     -0.00230677
C       1.40005576     -0.29236596     -1.21841597
C       2.79326093     -0.34067582     -1.28092575
Cl      3.56822981     -0.67638624     -2.77940121
C       3.56072525     -0.11946094     -0.14080330
C       2.93036004      0.15268860      1.07368446
C       1.53412480      0.20275677      1.14416349
Cl      0.81927353      0.54528544      2.68212019
C      -1.49234843     -1.13129012      0.30047920
Cl     -0.74163899     -2.66606528      0.58976176
C      -2.88923146     -1.08853878      0.34277288
H      -3.35270899      2.20908762     -0.33230757
H       0.81871463     -0.46827826     -2.12159743
H       4.64604258     -0.15714952     -0.18974776
H       3.53240475      0.32511186      1.96277319
H      -3.45855113     -1.99068973      0.55380055
