48
CCCN(CCC)c1c([N+](=O)[O-])cc(S(=O)(=O)N=S(C)C)cc1[N+](=O)[O-]
C      -4.81549860     -2.36542602     -1.37567353
C      -3.79383661     -1.75811974     -0.42760710
C      -3.02354663     -0.61561562     -1.09292669
N      -2.10068157      0.00246915     -0.11555126
C      -2.44610497      1.36102002      0.35594189
C      -3.61025396      1.30703079      1.34636737
C      -3.89557627      2.67569865      1.94411284
C      -0.73369067     -0.19916391     -0.36811081
C       0.02181006     -1.03443755      0.48207221
N      -0.60847222     -1.63974810      1.63825298
O      -0.75322001     -0.92250923      2.63778834
O      -0.87443358     -2.84653718      1.56087764
C       1.38819261     -1.30460832      0.29958378
C       2.05214996     -0.70049476     -0.76668713
S       3.78183065     -1.03973648     -1.04214976
O       4.06238512     -2.30377853     -0.39087566
O       4.01462452     -0.84398828     -2.45862914
N       4.46870219      0.24981526     -0.13412753
S       6.07045021      0.37594086     -0.21663616
C       6.19290116      1.97813064      0.62121950
C       6.45591275     -0.61627372      1.25310232
C       1.36553082      0.13938271     -1.64440276
C      -0.00348272      0.37738599     -1.42833931
N      -0.63851935      1.29347490     -2.35040032
O      -1.19184847      0.80412434     -3.34258000
O      -0.54015869      2.49965956     -2.09000846
H      -4.33027371     -2.76515402     -2.27182850
H      -5.55320918     -1.61912490     -1.68727767
H      -5.34854451     -3.18512259     -0.88387207
H      -4.30584790     -1.40491371      0.47390123
H      -3.09599353     -2.53958780     -0.10727873
H      -2.48553470     -1.02201800     -1.95806438
H      -3.72505948      0.13302196     -1.48111368
H      -2.70741412      2.00792522     -0.48975104
H      -1.58364997      1.81593174      0.86138172
H      -3.38443073      0.59958862      2.15294608
H      -4.51563598      0.94485267      0.84680629
H      -4.15263607      3.39849084      1.16321244
H      -4.73608918      2.61635999      2.64262634
H      -3.02615158      3.05432755      2.49096133
H       1.91531287     -1.96905493      0.98335281
H       7.23842095      2.16114096      0.88174690
H       5.85497646      2.75968325     -0.06429688
H       5.58113583      1.99914157      1.52720714
H       6.36382113     -1.67545767      1.00193792
H       5.78212893     -0.37554823      2.07974429
H       7.48779452     -0.41476490      1.55202903
H       1.88171422      0.60658694     -2.48316660
