44
COC1=CC=C2C3Cc4ccc(OC)c5c4C2(CCN3C)C1O5
C       2.40240004      3.75690793     -0.08325031
O       1.00002804      4.01287343     -0.08413320
C       0.23678174      2.86208924     -0.22747023
C      -0.64829303      2.80149510     -1.23876420
C      -1.56708161      1.70129994     -1.42968171
C      -1.60198861      0.67658293     -0.56580076
C      -2.36815068     -0.62716876     -0.70415005
C      -1.35769701     -1.83009575     -0.89874467
C       0.01108594     -1.63267376     -0.27592097
C       1.07689298     -2.51458922     -0.44329092
C       2.37356531     -2.15363891     -0.01240966
C       2.63169142     -0.89056057      0.54618850
O       3.85281836     -0.41302740      0.92564534
C       4.96357956     -1.28371625      0.76570810
C       1.55384553     -0.03654391      0.70696189
C       0.27958367     -0.43850266      0.37803785
C      -0.71282747      0.63672108      0.65044387
C      -1.55748761      0.35686205      1.90831515
C      -2.52045357     -0.82454487      1.73666815
N      -3.26095058     -0.73135818      0.47355037
C      -4.23921640     -1.80718215      0.35139597
C       0.26634890      1.82028713      0.88889300
O       1.60822129      1.27410374      1.10783328
H       2.68062868      2.98909691     -0.81367531
H       2.91055227      4.68548156     -0.36056543
H       2.73874371      3.48405038      0.92096656
H      -0.68817641      3.60683951     -1.96739576
H      -2.18166516      1.70665256     -2.32481930
H      -3.00181541     -0.57459349     -1.59958452
H      -1.78466100     -2.77455031     -0.54689847
H      -1.20076062     -1.94248073     -1.98052148
H       0.92792429     -3.46886920     -0.94309790
H       3.17163788     -2.87173341     -0.17351381
H       4.84682705     -2.18911531      1.37049754
H       5.85479188     -0.75841790      1.12246009
H       5.12315875     -1.53050334     -0.28913985
H      -2.14880498      1.25243250      2.14592121
H      -0.91568557      0.16500933      2.77811316
H      -3.22419441     -0.80722158      2.57846500
H      -1.97412718     -1.77266517      1.81261075
H      -4.80477841     -1.71440168     -0.58225514
H      -3.78615040     -2.80298334      0.38376398
H      -4.97170667     -1.74611927      1.16425417
H       0.00556549      2.34847178      1.81596148
