15
ClC(Cl)COCC(Cl)Cl
Cl     -2.62235008      0.60025183      2.08130048
C      -2.46085827      0.18738328      0.35019025
Cl     -3.84176854     -0.82581189     -0.14204998
C      -1.14159843     -0.54589611      0.08922050
O      -0.03455537      0.35607688      0.23322940
C       1.22497498     -0.31325053      0.07378393
C       2.37517773      0.69550598      0.14923736
Cl      3.93674402     -0.15283349      0.28196661
Cl      2.39520817      1.74026309     -1.30037530
H      -2.50516966      1.12600309     -0.20986078
H      -1.12757605     -0.92972855     -0.93810946
H      -1.02158654     -1.39248032      0.77662621
H       1.31916880     -1.04451517      0.88576466
H       1.23948736     -0.85286702     -0.88132848
H       2.26470190      1.35189895      1.01732443
