17
N#[N+]c1ccc(S(=O)(=O)O)cc1
N      -4.50956458      0.71473563     -0.03208040
N      -3.43822471      0.52635240     -0.04723147
C      -2.06520929      0.28629916     -0.06564929
C      -1.38225139      0.11156584      1.14567165
C      -0.00704455     -0.13374469      1.12377490
C       0.66300678     -0.20591688     -0.10346162
S       2.41663933     -0.51483689     -0.12720541
O       2.95654786      0.13941946     -1.29620234
O       2.59054749     -1.92438557      0.12716164
O       2.98404443      0.29162108      1.14864132
C      -0.02141664     -0.02189880     -1.31118151
C      -1.39634916      0.22411353     -1.29527974
H      -1.89259433      0.15879415      2.10769893
H       0.54051335     -0.27716014      2.05646704
H       3.96250810      0.33774411      1.07219233
H       0.51552022     -0.07369366     -2.26000128
H      -1.91667291      0.36099126     -2.24331474
