24
C1CCCCCCC1
C       0.24514013     -1.76789759      0.04990547
C      -0.90634577     -1.21211480     -0.78822195
C      -1.86795973     -0.28634420     -0.04320225
C      -1.26366785      0.76051368      0.88729859
C      -0.40598067      1.83268432      0.22266753
C       0.88474819      1.38394097     -0.46250067
C       1.71820310      0.36719617      0.31779092
C       1.59052784     -1.07499340     -0.17819541
H      -0.00409351     -1.79029735      1.11630795
H       0.38355965     -2.81792646     -0.24140836
H      -1.50417767     -2.06089573     -1.14763592
H      -0.53527750     -0.72992944     -1.69791671
H      -2.53344895     -0.91473283      0.56378826
H      -2.51539924      0.20937346     -0.77727628
H      -0.71285815      0.27837711      1.70118929
H      -2.09932279      1.27512187      1.38092705
H      -1.01357875      2.38614944     -0.50416087
H      -0.13595516      2.56025351      0.99978711
H       0.67856433      1.02944315     -1.47717231
H       1.49527360      2.28658293     -0.60216752
H       2.77336781      0.64592019      0.19319280
H       1.52498175      0.42598212      1.39437956
H       2.35710241     -1.66852749      0.33709467
H       1.84659696     -1.11787963     -1.24447094
