41
CCN(C(=O)SCc1ccccc1)C(C)C(C)C
C      -0.77224789     -3.26818164      0.49198534
C      -0.84370893     -1.94465248      1.23741550
N      -1.24523541     -0.83492053      0.35700642
C      -0.35602219      0.00704005     -0.31614229
O      -0.71199846      0.94303243     -1.02252759
S       1.35894481     -0.33671408     -0.13231247
C       2.03693609      1.14533109     -0.93051636
C       3.54563950      1.15318181     -0.87491679
C       4.21536564      1.70183152      0.22900118
C       5.60972203      1.69596019      0.28438470
C       6.34848165      1.15153888     -0.76494698
C       5.69478647      0.59371717     -1.86088527
C       4.30000769      0.58829258     -1.91441614
C      -2.70247540     -0.67224225      0.13507027
C      -3.06765435     -0.92455616     -1.33472172
C      -3.25401150      0.67865540      0.68078857
C      -4.77585490      0.78176447      0.52405805
C      -2.89392135      0.87410165      2.15932479
H      -1.74983430     -3.54462459      0.08260584
H      -0.06540868     -3.21697957     -0.34310889
H      -0.45086499     -4.06546723      1.16716694
H       0.11892321     -1.73512905      1.71244451
H      -1.56556361     -2.00939384      2.05929409
H       1.65122523      2.04205150     -0.42925405
H       1.70863667      1.18908370     -1.97599996
H       3.65377497      2.14070755      1.05020025
H       6.12081871      2.11661649      1.14709584
H       7.43433795      1.15159161     -0.72209897
H       6.27237018      0.16370269     -2.67568870
H       3.80285231      0.14927143     -2.77709165
H      -3.19818068     -1.46967216      0.70627946
H      -2.56210788     -1.81747604     -1.71614819
H      -4.14385179     -1.08905015     -1.45076437
H      -2.78838581     -0.08582442     -1.98118667
H      -2.81423339      1.51190059      0.12220242
H      -5.15612274      1.69547451      0.99315763
H      -5.27962567     -0.06992346      0.99382514
H      -5.06640433      0.81367446     -0.52932542
H      -3.30105338      0.06923261      2.78005785
H      -1.80966274      0.90462582      2.30637994
H      -3.29839275      1.82242748      2.53230774
