19
O=C(O)COc1c(Cl)c(Cl)c(Cl)c(Cl)c1Cl
O      -3.46858283     -1.07476548      1.59682897
C      -3.13339883     -0.87700922      0.44136609
O      -4.03084090     -1.02698242     -0.55812833
C      -1.77037565     -0.46022989     -0.07913043
O      -0.85227714     -0.31294208      1.00938052
C       0.39580005      0.06523808      0.56981797
C       1.36117130     -0.91491754      0.28862149
Cl      0.93381668     -2.59141260      0.45827881
C       2.65129288     -0.53170589     -0.11370699
Cl      3.83997847     -1.74712711     -0.49025782
C       2.97700424      0.83556247     -0.21196040
Cl      4.57370109      1.31446266     -0.72131041
C       2.01638564      1.81666121      0.10397470
Cl      2.41939582      3.50725253     -0.00320526
C       0.72770503      1.42812506      0.50581632
Cl     -0.47208192      2.60869627      0.94033554
H      -4.85357477     -1.29255080     -0.09323984
H      -1.89124437      0.49115441     -0.60886397
H      -1.42387479     -1.23750966     -0.76915307
