33
CCCCCCc1ccc(C(=O)O)cc1
C      -5.61642554     -1.05742378     -0.60986550
C      -4.63747187     -0.10985750      0.06486746
C      -3.19003469     -0.46604964     -0.27308577
C      -2.20855125      0.48943938      0.40754906
C      -0.75991470      0.13313045      0.06944618
C       0.22016030      1.09016742      0.75132580
C       1.65272393      0.74712423      0.42405620
C       2.36634914     -0.15619349      1.22321089
C       3.68793109     -0.48813889      0.91228506
C       4.30876348      0.07808473     -0.20667612
C       5.70786645     -0.24286487     -0.57800409
O       6.31397297      0.20595985     -1.53347550
O       6.28733326     -1.11449278      0.26684646
C       3.59794493      0.97560028     -1.01156432
C       2.27702439      1.30593884     -0.69887166
H      -5.51439590     -1.01674829     -1.69902654
H      -6.64515439     -0.78449495     -0.35464425
H      -5.44881540     -2.08991698     -0.28706353
H      -4.78752556     -0.15067255      1.15000408
H      -4.85274429      0.91657961     -0.25417540
H      -2.98117869     -1.49498801      0.04430271
H      -3.04639489     -0.42778836     -1.35981205
H      -2.35214952      0.45078720      1.49423060
H      -2.41738487      1.51823245      0.08980016
H      -0.61810017      0.16686030     -1.01823891
H      -0.55302758     -0.89803359      0.38282392
H       0.01480731      2.12392855      0.44547660
H       0.07959648      1.06442133      1.83942134
H       1.89618396     -0.60859505      2.09399002
H       4.22207001     -1.18975196      1.54816966
H       7.18948482     -1.22773718     -0.09888386
H       4.06918643      1.41992842     -1.88610811
H       1.73787035      2.00186773     -1.33831056
