33
CC(C)(CO)[C@@H](O)C(=O)NCCCO
C      -2.38187128     -1.54500036     -0.34142139
C      -2.01082261     -0.06286412     -0.13679930
C      -1.33911882      0.46350105     -1.42058339
C      -3.32937986      0.71863919      0.08349382
O      -3.08085408      2.08636692      0.38957481
C      -1.07733309      0.12139873      1.09130274
O      -1.81290758     -0.14009118      2.29815854
C       0.17886567     -0.77410231      1.09225200
O       0.23877997     -1.77448210      1.80801055
N       1.19761169     -0.36754606      0.26977787
C       2.48787479     -1.02046155      0.27662120
C       3.37218029     -0.53328547     -0.86911758
C       3.75535209      0.93862933     -0.73989449
O       2.59016563      1.75952979     -0.77955829
H      -3.08517222     -1.66250192     -1.17405031
H      -2.85480722     -1.96613533      0.55251399
H      -1.50129960     -2.15359431     -0.57336659
H      -0.49562383     -0.16298739     -1.72644779
H      -2.04516266      0.47005513     -2.25925762
H      -0.97238527      1.48735562     -1.28935088
H      -3.93219160      0.28831417      0.89188554
H      -3.94947772      0.69273168     -0.81987234
H      -2.90260782      2.11823816      1.34859887
H      -0.73700106      1.16141284      1.16259999
H      -1.51392851     -1.02393785      2.60220510
H       1.19722840      0.59542289     -0.06798891
H       2.96006910     -0.82742014      1.24639385
H       2.32620596     -2.10109233      0.19457760
H       2.84149210     -0.68483649     -1.81721665
H       4.28609488     -1.13706306     -0.89736155
H       4.28083994      1.12536400      0.20197237
H       4.40772557      1.22732067     -1.57018592
H       2.90145872      2.68312181     -0.80770663
