8
ClCC(Cl)Cl
Cl      2.04719099      0.52599989      0.56135026
C       0.67274762     -0.40084459     -0.10433055
C      -0.66413742      0.28129015      0.16548510
Cl     -2.00231354     -0.80177041     -0.31671899
Cl     -0.82208604      1.81696859     -0.73093028
H       0.70860880     -1.38612907      0.37154690
H       0.85271231     -0.53554183     -1.17610723
H      -0.79272272      0.50002727      1.22970480
