29
O=C(OCn1c(=O)[nH]cc(F)c1=O)Oc1ccccc1
O       1.08743671      0.26291487      1.38951961
C       0.70104395      0.09899745      0.24079865
O      -0.59696143     -0.04115316     -0.13059961
C      -1.49109678      0.01719594      0.97798655
N      -2.83501520     -0.14823454      0.47139025
C      -3.52642257      0.98863878      0.08432727
O      -3.09077382      2.13390925      0.17106047
N      -4.78627109      0.77960265     -0.42248893
C      -5.35703807     -0.45155959     -0.56968245
C      -4.69400032     -1.54884471     -0.21410991
F      -5.22050784     -2.78030117     -0.34441109
C      -3.32689335     -1.44174937      0.34605801
O      -2.70672348     -2.45221304      0.66920278
O       1.47752038      0.02384269     -0.90159034
C       2.84142989      0.15266898     -0.64056800
C       3.42940584      1.41494505     -0.69956309
C       4.80129090      1.53547125     -0.48281517
C       5.57071394      0.39826989     -0.22477190
C       4.97226779     -0.86359664     -0.18792183
C       3.60094523     -0.99174848     -0.40374911
H      -1.26018903     -0.78470481      1.68946092
H      -1.39897889      0.98581645      1.48369980
H      -5.28665340      1.61701617     -0.70241373
H      -6.35757187     -0.49272149     -0.98491329
H       2.82957524      2.29533791     -0.90839752
H       5.27299569      2.51410747     -0.51599258
H       6.64029715      0.49529558     -0.05501230
H       5.57645617     -1.74568634      0.00764695
H       3.13371826     -1.97151703     -0.38389538
