8
FC(Cl)(Cl)CCl
F       0.98137718      1.04740638     -1.00660999
C       0.72418194      0.13132685     -0.03355444
Cl      1.25810567      0.78490485      1.53686196
Cl      1.68513775     -1.33489914     -0.39739579
C      -0.76249200     -0.22341245     -0.04126229
Cl     -1.82892053      1.18764113      0.23594814
H      -1.05182429     -0.62480862     -1.01767717
H      -1.00556571     -0.96815899      0.72368958
