33
COc1cc(O)c(C(=O)c2ccccc2)cc1S(=O)(=O)[O-].[Na+]
C      -4.61116698      1.45514187     -0.11233831
O      -3.50160213      2.17183551      0.42790617
C      -2.29433595      1.61756963      0.10521928
C      -1.44577387      2.47598070     -0.60647231
C      -0.17677686      2.05582585     -1.00087824
O       0.56855258      2.95303341     -1.72312486
C       0.28942912      0.77712843     -0.66717973
C       1.66054664      0.36645547     -1.07074979
O       2.18306867      0.93945877     -2.03008336
C       2.43856337     -0.67580319     -0.35535827
C       3.29796148     -1.49045718     -1.10384840
C       4.06306459     -2.47168618     -0.47117062
C       3.98038540     -2.63483486      0.91113115
C       3.14242965     -1.81151551      1.66311893
C       2.37941668     -0.82479802      1.03486037
C      -0.55961977     -0.08735231      0.02797650
C      -1.83760784      0.33837790      0.44003954
S      -2.77491940     -0.80750535      1.48632551
O      -3.37120111      0.05014745      2.50293439
O      -1.74027032     -1.70869822      1.99286722
O      -3.69344397     -1.40532887      0.52174815
Na      0.00000000      0.00000000      0.00000000
H      -5.32769269      2.19329303     -0.48684657
H      -4.34233450      0.80387772     -0.95186176
H      -5.11181633      0.88813624      0.67605767
H      -1.78527419      3.47592366     -0.86205941
H       1.35063242      2.46484774     -2.06681478
H       3.36652485     -1.36507778     -2.18214844
H       4.71885379     -3.10986833     -1.05696962
H       4.56733652     -3.40473460      1.40501904
H       3.07412262     -1.93936943      2.74099221
H       1.74409829     -0.18801697      1.64664828
H      -0.25115075     -1.10198657      0.26952169
