22
CCCNCCC
C      -3.68941928      0.56846630     -0.14665822
C      -2.47434520     -0.24552986      0.27106140
C      -1.17655503      0.40110855     -0.21469992
N      -0.03392718     -0.40507450      0.21496245
C       1.22699548      0.17963021     -0.24147366
C       2.39519269     -0.69423609      0.21682578
C       3.72901545     -0.11511114     -0.22928580
H      -4.60691962      0.08993513      0.20990184
H      -3.64801546      1.57869591      0.27294315
H      -3.75059014      0.65079595     -1.23653149
H      -2.56696809     -1.25928710     -0.13730977
H      -2.46336420     -0.33594025      1.36411013
H      -1.19490641      0.48205521     -1.30823114
H      -1.09757231      1.41303050      0.20005524
H      -0.12528143     -1.35210544     -0.15211065
H       1.23567206      0.25808031     -1.33530681
H       1.34341741      1.18810428      0.17285972
H       2.29198396     -1.70701946     -0.19142392
H       2.39201988     -0.78333786      1.31003270
H       3.78011696     -0.04313907     -1.32041013
H       3.88216818      0.88482613      0.18905871
H       4.55128227     -0.75394773      0.10790644
