51
C#CC1(O)CCC2C3CCC4=CC(=O)CCC4(C)C3CCC21C
C       5.27604837     -0.46265184     -1.68927421
C       4.48674984     -0.04175003     -0.88735257
C       3.53066482      0.47729194      0.10334806
O       4.21467883      0.63571998      1.34977488
C       2.97223447      1.85168982     -0.29066052
C       1.57341674      1.93274898      0.33504908
C       1.32439729      0.58461667      1.03669048
C      -0.15064038      0.13285731      1.10950074
C      -1.02470226      1.19078056      1.81525003
C      -2.49708207      0.78601720      1.88972876
C      -2.97230701      0.44761924      0.49937800
C      -3.87661165      1.23412361     -0.11084396
C      -4.14376996      1.11026456     -1.56272669
O      -5.03087519      1.78543396     -2.07760411
C      -3.22483090      0.22776546     -2.36726026
C      -2.88734320     -1.01663075     -1.56432545
C      -2.24114004     -0.71756315     -0.17907074
C      -2.41734206     -2.01902955      0.64484600
C      -0.73085230     -0.28512492     -0.27791470
C       0.18565755     -1.34360397     -0.91860473
C       1.62923589     -0.85152444     -1.04451897
C       2.26157154     -0.40677420      0.30080307
C       2.55237487     -1.64480118      1.17253351
H       5.97586657     -0.84133391     -2.39838350
H       5.04943436      1.09608353      1.15735612
H       3.60009404      2.67437697      0.07090894
H       2.88435259      1.96275828     -1.37854038
H       1.51726082      2.75720338      1.05475981
H       0.83750548      2.14159493     -0.44782182
H       1.67676937      0.69752635      2.07325363
H      -0.15914530     -0.75575978      1.75395318
H      -0.95258053      2.15022031      1.28761950
H      -0.64829669      1.36304653      2.83092988
H      -3.07278950      1.61398957      2.32107181
H      -2.63447954     -0.06466676      2.56518080
H      -4.37163534      2.06234939      0.38389914
H      -3.74114729     -0.06410760     -3.28829959
H      -2.33036993      0.79614356     -2.63984615
H      -3.82715100     -1.56770640     -1.40854206
H      -2.26021231     -1.68248212     -2.16484102
H      -2.02478029     -2.88711124      0.10342309
H      -3.47824185     -2.21589312      0.84349839
H      -1.91439954     -1.99049964      1.61475112
H      -0.69489562      0.59911345     -0.92938624
H      -0.16295926     -1.59203181     -1.92581070
H       0.16412690     -2.27455467     -0.34309668
H       1.63809544     -0.02744963     -1.76858710
H       2.23054304     -1.65207891     -1.49388891
H       1.65307943     -2.24093613      1.35351747
H       3.28876470     -2.29739044      0.69095116
H       2.94765805     -1.36787936      2.15577199
