55
CN(Cc1cnc2nc(N)nc(N)c2n1)c1ccc(C(=O)NC(CCC(=O)O)C(=O)O)cc1
C       2.36406107     -1.05863486      1.65376934
N       1.80592209     -0.37916790      0.47223240
C       2.51502836      0.86006244      0.09414601
C       3.87731854      0.56588844     -0.49343539
C       4.00463901     -0.20002414     -1.63831469
N       5.20309758     -0.48245569     -2.20423575
C       6.30542520     -0.00520244     -1.61349371
N       7.47362056     -0.28653479     -2.18121997
C       8.57054741      0.19213641     -1.60636344
N       9.78084029     -0.10385826     -2.19493974
N       8.59361506      0.90851253     -0.48650878
C       7.40496582      1.18737882      0.06782102
N       7.46155300      1.89988129      1.27905101
C       6.18430961      0.75854031     -0.44511150
N       4.97544513      1.06356427      0.12173746
C       0.40272913     -0.28154917      0.57249212
C      -0.27116753      0.89666852      0.92182143
C      -1.66777844      0.92872953      1.01021450
C      -2.42269037     -0.21820847      0.74185249
C      -3.90404840     -0.12370982      0.84775542
O      -4.41964151      0.72013713      1.57145868
N      -4.63878587     -0.99070190      0.07360938
C      -6.09950358     -1.04518395      0.13903016
C      -6.75084454     -0.28541035     -1.02386254
C      -6.45849481      1.21688499     -1.05933490
C      -6.99025816      2.01965148      0.09978444
O      -6.69256419      3.17873251      0.34691967
O      -7.91895503      1.38889776      0.83912608
C      -6.49225322     -2.52144971      0.06434360
O      -5.79473098     -3.42908983     -0.36935825
O      -7.73890152     -2.77009888      0.51078874
C      -1.76638363     -1.40586340      0.40982882
C      -0.36914780     -1.42934534      0.32582024
H       1.89239256     -2.03437650      1.82163598
H       2.23605184     -0.45100037      2.55728968
H       3.43400564     -1.24932836      1.51936920
H       1.95446150      1.41287771     -0.67209153
H       2.62833322      1.52048165      0.96369766
H       3.13782634     -0.62173792     -2.13970772
H       9.69981663     -0.93631376     -2.76403611
H      10.52447720     -0.07746175     -1.51069746
H       6.74760228      2.62058313      1.31641957
H       8.40777181      2.23678409      1.42469965
H       0.27148367      1.80792334      1.15601127
H      -2.16534882      1.85515797      1.29314801
H      -4.18382687     -1.66127574     -0.53369881
H      -6.42077096     -0.66543125      1.11448092
H      -7.83642489     -0.44301906     -1.00083354
H      -6.40656877     -0.71835548     -1.97299298
H      -6.91459420      1.63477001     -1.96506531
H      -5.37989915      1.38911549     -1.12292130
H      -8.12203308      2.03929744      1.54639826
H      -7.84845047     -3.74028957      0.41485066
H      -2.31125822     -2.32905401      0.23635695
H       0.12798449     -2.35852461      0.05426874
