46
CCCCN(CCCC)C(=O)COC(=O)c1ccccc1
C      -2.75450151     -4.14539819     -1.63256737
C      -2.57997507     -3.35970170     -0.34277731
C      -2.00016590     -1.97116137     -0.60728383
C      -1.83003369     -1.18409955      0.69358954
N      -1.23552455      0.13254779      0.45715581
C      -2.14583047      1.22734256      0.11740156
C      -2.61178836      1.97837114      1.36588503
C      -3.56251246      3.11852000      1.00487003
C      -4.02936889      3.86764458      2.24268960
C       0.13037758      0.40844101      0.52204979
O       0.57174132      1.54816028      0.34898176
C       1.07658019     -0.75496668      0.85611254
O       2.44637917     -0.43961771      0.59945647
C       2.78195311     -0.48640338     -0.71442709
O       2.05896195     -0.87327269     -1.61993360
C       4.18489993     -0.03459568     -0.91550835
C       4.75244263     -0.18295780     -2.18860340
C       6.06638084      0.22560270     -2.42600305
C       6.81863660      0.78676984     -1.39492614
C       6.25956062      0.94301403     -0.12682055
C       4.94538709      0.53499372      0.11483742
H      -3.43651903     -3.63026146     -2.31653975
H      -1.79502314     -4.28182451     -2.14163464
H      -3.17008810     -5.13536064     -1.42006793
H      -1.91863657     -3.91717451      0.33068914
H      -3.55117997     -3.26856282      0.15733244
H      -1.03461164     -2.06483635     -1.11846631
H      -2.65936346     -1.42106928     -1.28977853
H      -1.20579121     -1.74694483      1.39426976
H      -2.79947480     -1.04179576      1.18543752
H      -3.00231484      0.81759216     -0.42996586
H      -1.63751095      1.92175589     -0.56192916
H      -3.11220400      1.28315539      2.05103928
H      -1.74340938      2.37739015      1.90450540
H      -4.43564335      2.72130804      0.47425930
H      -3.06222182      3.82022373      0.32737334
H      -4.56259563      3.20031527      2.92729215
H      -3.18155744      4.30508829      2.77953360
H      -4.70828621      4.67869671      1.96132217
H       0.99111979     -0.95069515      1.93020796
H       0.79943673     -1.67002150      0.32446781
H       4.17133250     -0.61575566     -3.00071171
H       6.50047816      0.10877610     -3.41587155
H       7.84074031      1.10763643     -1.58107324
H       6.84519090      1.38755030      0.67419238
H       4.52453297      0.67558112      1.10732204
