15
O=C(O)c1cccc(Cl)c1
O      -2.75935211     -1.17447302      0.41202838
C      -2.09704090     -0.16234284      0.27969809
O      -2.66708641      1.05475590      0.29798373
C      -0.62853101     -0.10592637      0.08645388
C       0.08195802     -1.31398431      0.04952087
C       1.46634110     -1.31013576     -0.13039392
C       2.14429948     -0.09957922     -0.27384163
C       1.43598042      1.10166851     -0.23687852
Cl      2.27934504      2.59148514     -0.41458804
C       0.05367534      1.10777930     -0.05768946
H      -3.62050272      0.86820965      0.43031038
H      -0.44232385     -2.26194314      0.16099338
H       2.01436686     -2.24904767     -0.15855688
H       3.22245738     -0.09850022     -0.41387157
H      -0.48358665      2.05203404     -0.03116868
