48
C[C@H](CCc1ccccc1)NC[C@H](O)c1ccc(O)c(C(N)=O)c1
C      -1.57630754      3.09880936     -0.87297950
C      -0.98442581      1.68971255     -0.96633932
C      -2.09489323      0.61794838     -1.01787857
C      -2.98715925      0.55358834      0.22805994
C      -4.01851585     -0.54316085      0.10756337
C      -3.72038529     -1.84641707      0.52751186
C      -4.66648835     -2.86437942      0.39907277
C      -5.91625551     -2.59027939     -0.15335756
C      -6.22055296     -1.29870425     -0.57956471
C      -5.27562153     -0.27933323     -0.45227342
N      -0.06911589      1.40084804      0.14943832
C       1.18402024      2.16821388      0.08124871
C       2.18071124      1.81184682      1.21612912
O       3.28855847      2.71891717      1.17589209
C       2.71606709      0.39718776      1.10868829
C       2.14274027     -0.63058981      1.87306424
C       2.59681885     -1.94430619      1.75187098
C       3.63529661     -2.24338871      0.87391560
O       4.00669767     -3.56072610      0.80527474
C       4.24558685     -1.23222985      0.11813320
C       5.37197746     -1.57481689     -0.78918506
N       6.18871941     -0.56874540     -1.22420370
O       5.58699103     -2.74174515     -1.10356806
C       3.76550531      0.08138335      0.22658733
H      -2.36498047      3.23826780     -1.62037884
H      -0.81596231      3.86345081     -1.06205458
H      -2.00791769      3.29572942      0.11412628
H      -0.43292881      1.60990212     -1.91248981
H      -1.63044391     -0.36412318     -1.18422835
H      -2.71986031      0.80199545     -1.90236072
H      -3.50219827      1.50850469      0.38542836
H      -2.38747130      0.37970247      1.12966072
H      -2.74761583     -2.07551834      0.95659584
H      -4.42727881     -3.87189638      0.72893308
H      -6.65216216     -3.38356010     -0.25323848
H      -7.19411006     -1.08514407     -1.01263308
H      -5.52570104      0.72272714     -0.79265953
H       0.16823789      0.40584620      0.12154206
H       1.67190403      2.01626813     -0.89036239
H       0.97078200      3.24062663      0.15737212
H       1.70096198      1.94736899      2.19365962
H       2.94863926      3.58169748      1.46974563
H       1.32751036     -0.41574303      2.56193819
H       2.14062864     -2.73727733      2.33894405
H       4.66709489     -3.64970162      0.08099686
H       6.22491022      0.32973276     -0.76273202
H       7.01907890     -0.85733016     -1.72654230
H       4.18891352      0.87884080     -0.37843314
