22
CN1CCN(C)CC1
C      -2.82467693      0.26954366     -0.27439801
N      -1.38769457      0.18202346     -0.52018020
C      -0.66604263      1.24030589      0.21379258
C       0.86591940      1.13620706      0.03131218
N       1.38768829     -0.18201650      0.44301448
C       2.82467369     -0.26955460      0.19726492
C       0.66604371     -1.24029502     -0.29096785
C      -0.86591623     -1.13619900     -0.10848433
H      -3.07496191      0.14684706      0.78558356
H      -3.21254661      1.23778298     -0.60969086
H      -3.35854691     -0.49831392     -0.84512406
H      -0.98875670      2.22250738     -0.15220845
H      -0.90210146      1.19668927      1.28584624
H       1.11541931      1.33957230     -1.01907675
H       1.33714903      1.91989433      0.63678419
H       3.21251466     -1.23780386      0.53256330
H       3.35854194      0.49828990      0.76800929
H       3.07499083     -0.14686052     -0.86270799
H       0.98875766     -2.22249832      0.07502439
H       0.90210582     -1.19667037     -1.36301985
H      -1.33714937     -1.91988434     -0.71395655
H      -1.11541103     -1.33956685      0.94190574
