63
CCCCCCCCCCCCCCCCCCOCC[O]
C       6.87489538     -3.28507698     -1.40624818
C       7.12911214     -1.85638187     -0.94963528
C       6.64703397     -1.63598295      0.48429919
C       6.97860191     -0.24447141      1.03177827
C       6.38340468      0.93666151      0.25894465
C       4.85422443      0.91250775      0.19248557
C       4.31108176      2.17788555     -0.47663817
C       2.79435029      2.15206984     -0.68612875
C       1.99889336      2.15125686      0.62120642
C       0.49354594      2.23466192      0.35330445
C      -0.30287247      2.22279657      1.65959374
C      -1.80873025      2.41980271      1.45904565
C      -2.51026030      1.38587035      0.57133362
C      -2.40834549     -0.04468907      1.10580225
C      -3.10544835     -1.07802257      0.21460120
C      -4.62730394     -0.92101647      0.17072592
C      -5.27699464     -2.05494532     -0.62998179
C      -6.79990244     -1.93865472     -0.66564502
O      -7.15835402     -0.74970332     -1.35536367
C      -8.55853578     -0.66269450     -1.66356130
C      -9.57607838     -0.95987662     -0.51513531
O      -9.50201966     -0.00269353      0.40019967
H       7.40642259     -4.00077561     -0.77084301
H       7.22244585     -3.42149154     -2.43512579
H       5.80661806     -3.52256655     -1.37370688
H       6.61392733     -1.17388626     -1.63421173
H       8.20199598     -1.64227614     -1.01909532
H       7.12059155     -2.37859012      1.13906286
H       5.56795897     -1.81795967      0.54704507
H       6.63781981     -0.19335910      2.07346630
H       8.06896769     -0.12498911      1.05950416
H       6.70558463      1.86136982      0.75421683
H       6.79997820      0.97098921     -0.75423632
H       4.45330037      0.82300566      1.20809171
H       4.51754701      0.03632597     -0.37253548
H       4.78882887      2.29729095     -1.45708540
H       4.58509232      3.05833324      0.11718598
H       2.51601525      3.03555575     -1.27395254
H       2.52135393      1.27559723     -1.28628312
H       2.30975020      3.00087624      1.24104178
H       2.20981600      1.23844965      1.18944359
H       0.26954481      3.15132247     -0.20542008
H       0.19611739      1.38784550     -0.27543058
H       0.06000237      3.03100637      2.30731193
H      -0.11416441      1.28951553      2.20234057
H      -2.29114002      2.42582192      2.44442977
H      -1.97895713      3.41454355      1.02840436
H      -3.56461797      1.67699237      0.50219819
H      -2.11099344      1.43257123     -0.44798425
H      -1.35391608     -0.33319982      1.18060062
H      -2.82378443     -0.09288774      2.11936946
H      -2.69720452     -1.02187808     -0.80169356
H      -2.86118360     -2.07661680      0.59773544
H      -5.02626789     -0.91995257      1.19201693
H      -4.89016059      0.04036759     -0.28261921
H      -4.88830942     -2.03292358     -1.65533605
H      -5.00343561     -3.02108029     -0.19045813
H      -7.18532770     -1.91742906      0.35864513
H      -7.21220820     -2.80935108     -1.18821959
H      -8.74662126     -1.37124106     -2.48104231
H      -8.73113089      0.33692131     -2.08343682
H      -9.39174606     -1.99716643     -0.19888462
H     -10.53880809     -1.07438468     -1.03976278
