24
Nc1ccc2cc(S(=O)(=O)O)ccc2c1
N       4.25353186      0.85417429     -0.45082038
C       2.92730709      0.40621844     -0.47314229
C       2.36675001     -0.06736207     -1.65897937
C       1.01259236     -0.40781196     -1.72374976
C       0.17957174     -0.23785607     -0.60962665
C      -1.18143016     -0.57355964     -0.65843647
C      -1.98852390     -0.37972059      0.46611364
S      -3.70916449     -0.77981611      0.36984883
O      -4.42320129      0.05666724      1.31081307
O      -3.82684343     -2.21949796      0.37648265
O      -4.16789251     -0.24618804     -1.08262850
C      -1.46532164      0.15585938      1.64228074
C      -0.11189301      0.49214182      1.69577644
C       0.72306177      0.29811227      0.58114935
C       2.08823878      0.63262233      0.62210467
H       4.85480225      0.39026057     -1.12472095
H       4.66435014      0.87792095      0.47723705
H       2.98133409     -0.17940599     -2.54834071
H       0.61418598     -0.79500072     -2.65894525
H      -1.61256832     -0.98842582     -1.56783457
H      -4.87862512      0.41420407     -0.93846987
H      -2.09606554      0.31402259      2.51432867
H       0.29117106      0.90822414      2.61725304
H       2.50463226      1.07421690      1.52452195
