42
CCCCc1ccc(C(=O)O)c(C(=O)O)c1CCCC
C       4.07438189     -1.83908489      1.65872674
C       2.70426280     -1.51544903      1.08271845
C       2.69054441     -1.66329828     -0.43982119
C       1.31801150     -1.38605644     -1.06749509
C       0.88768639      0.06728645     -0.98734033
C       1.54418526      0.97508745     -1.83917023
C       1.21741969      2.32980781     -1.84755517
C       0.21419617      2.81747408     -1.00477817
C      -0.09321809      4.27068689     -1.00137566
O      -0.58337270      4.91931627     -0.09818104
O       0.23842644      4.85833125     -2.16710525
C      -0.45685525      1.92597938     -0.15130274
C      -1.54485862      2.44060711      0.69976632
O      -1.55226033      2.51093872      1.91199506
O      -2.60041897      2.78018058     -0.06106265
C      -0.12595022      0.54260430     -0.11804362
C      -0.88875370     -0.40491143      0.79183339
C      -2.13451939     -0.97369228      0.10624422
C      -2.87915282     -1.94051581      1.02678717
C      -4.11818365     -2.50825343      0.35315330
H       4.36634173     -2.86751877      1.42337548
H       4.06276044     -1.73024231      2.74774645
H       4.83755036     -1.16434548      1.25793297
H       2.43424210     -0.49341840      1.36982373
H       1.96313674     -2.18873523      1.52801323
H       3.44986106     -1.00502693     -0.87941142
H       2.98108604     -2.68981159     -0.69703229
H       0.56916089     -2.06117137     -0.64360650
H       1.36150652     -1.65964537     -2.13085069
H       2.32584437      0.62369795     -2.51217023
H       1.75787773      2.99794484     -2.51470068
H      -0.02706181      5.79370018     -2.03979285
H      -3.23329713      3.16696654      0.57997518
H      -0.23637632     -1.21755586      1.12667139
H      -1.16849834      0.09564546      1.72438956
H      -2.80712261     -0.15858961     -0.18740697
H      -1.85128757     -1.49323022     -0.81753961
H      -2.21672473     -2.76514729      1.31466434
H      -3.17511930     -1.42447665      1.94754340
H      -4.63511935     -3.19679722      1.02885395
H      -4.81691029     -1.71075467      0.08090917
H      -3.85342135     -3.05852672     -0.55538114
