21
COCC(=O)c1ccccc1
C       3.14941828      0.85936324      1.24972302
O       2.03555943      0.62188778      0.39929601
C       1.84218765     -0.76468906      0.16213606
C       0.74079915     -1.05029868     -0.85351751
O       0.93889769     -1.81182923     -1.80247072
C      -0.61596292     -0.45028613     -0.66948217
C      -1.55272105     -0.59887923     -1.70309363
C      -2.83939300     -0.07148293     -1.57565572
C      -3.20153529      0.60553181     -0.41330825
C      -2.27953941      0.75424234      0.62158443
C      -0.99072944      0.22655941      0.49724218
H       3.23611654      1.93730563      1.41017039
H       4.07184896      0.50069091      0.78296625
H       3.00219211      0.37219100      2.21846769
H       2.77042028     -1.19196570     -0.23684026
H       1.59708997     -1.28394870      1.09579288
H      -1.28293989     -1.12691323     -2.61609934
H      -3.55626850     -0.19013493     -2.38426963
H      -4.20262095      1.01789518     -0.31404895
H      -2.56330685      1.28397478      1.52784422
H      -0.29951276      0.36078575      1.32372545
