16
O=S(CCCl)CCCl
O      -0.18487673      0.40790037      1.89979973
S      -0.02900273      0.61836005      0.42167668
C      -1.32809963     -0.36600026     -0.39458209
C      -2.69930422      0.25054727     -0.17618995
Cl     -2.92387228      1.70847118     -1.18005330
C       1.36256573     -0.42733659     -0.11957366
C       2.68766881      0.12774664      0.37440287
Cl      3.17609418      1.56941548     -0.55658903
H      -1.30104380     -1.36852865      0.04494160
H      -1.09335810     -0.44928666     -1.46060140
H      -2.87305872      0.52862195      0.86777775
H      -3.47778843     -0.45670074     -0.47727480
H       1.20201448     -1.42558819      0.30077547
H       1.34470875     -0.50486526     -1.21141057
H       3.47824815     -0.61527001      0.23369100
H       2.65910453      0.40251342      1.43320968
