21
O=[N+]([O-])OCCOCCO[N+](=O)[O-]
O      -5.61160694     -0.14759316      0.45210436
N      -4.49756008      0.12512575      0.89450915
O      -4.17034564      0.56875445      1.99554187
O      -3.46490158     -0.12259121     -0.03991998
C      -2.17616409      0.19328180      0.47353815
C      -1.14509476     -0.10278042     -0.61062631
O       0.15729265      0.20865135     -0.12103965
C       1.16991150     -0.04739783     -1.09955013
C       2.53542541      0.26560701     -0.49359623
O       2.82370772     -0.72642693      0.49163237
N       4.05797714     -0.49974768      1.14162190
O       4.72424477      0.46688130      0.76741292
O       4.30382704     -1.34045448      2.00424260
H      -1.94869078     -0.41287202      1.35966463
H      -2.11262681      1.25422137      0.74707014
H      -1.19693176     -1.16088844     -0.89421168
H      -1.36251216      0.49367409     -1.50486592
H       1.12088116     -1.09996724     -1.40072346
H       0.99492874      0.59467959     -1.96953001
H       3.29141740      0.23116885     -1.28666129
H       2.50682107      1.25867386     -0.02887365
