34
CCOC(=O)C1(S(=O)(=O)c2ccc(C)cc2)CC1
C      -2.70692431      1.80646740      0.43612510
C      -2.40818409      0.66873413     -0.52014499
O      -1.75063977     -0.36979785      0.21571493
C      -1.31170318     -1.40410696     -0.55049422
O      -1.47577922     -1.52136516     -1.75526235
C      -0.58477369     -2.39126005      0.24609939
S       1.21693133     -2.20120430      0.22696381
O       1.71676405     -2.49761514      1.55773340
O       1.71332618     -2.93464221     -0.92224859
C       1.50860843     -0.47327553     -0.06244828
C       1.73082792     -0.01623239     -1.36321934
C       1.94188273      1.34536596     -1.58422105
C       1.95326860      2.24702966     -0.51075071
C       2.15056907      3.71432294     -0.75862689
C       1.73232919      1.77144650      0.78933139
C       1.51991555      0.41132762      1.01876313
C      -1.16811198     -3.00346526      1.50195311
C      -1.01846555     -3.84431662      0.26738419
H      -1.78138897      2.18952959      0.87905658
H      -3.21764282      2.62524624     -0.07854254
H      -3.33643608      1.46111244      1.26277669
H      -3.34204646      0.28097947     -0.94202525
H      -1.75838915      1.02720266     -1.32615487
H       1.73197117     -0.70400110     -2.20714594
H       2.10307122      1.69941024     -2.60095947
H       2.60978275      4.19997573      0.10914743
H       1.18687256      4.19145853     -0.96175102
H       2.81594667      3.87920625     -1.61279141
H       1.73152229      2.45985423      1.63257198
H       1.36304297      0.05610085      2.03515933
H      -2.17070135     -2.71279811      1.79669628
H      -0.52333408     -3.22495217      2.34512420
H      -0.25869254     -4.61925586      0.26715200
H      -1.91341944     -4.11648175     -0.28258384
