21
C=CC(=O)N1CCOCC1
C       3.63632495     -0.11152338     -0.12512640
C       2.35633815     -0.19648119     -0.51001286
C       1.34186988      0.73493640      0.05131259
O       1.68409584      1.84078880      0.46474312
N       0.02250090      0.29991367      0.05100822
C      -0.36682850     -1.11675304      0.08470045
C      -1.81942245     -1.31542641     -0.36008477
O      -2.71287736     -0.48591939      0.39345747
C      -2.38245410      0.89781710      0.20487419
C      -0.95726193      1.19470128      0.67510330
H       4.39180841     -0.76179149     -0.55185941
H       3.95755202      0.61601927      0.61594961
H       2.05613184     -0.89906846     -1.27390355
H      -0.24656027     -1.44430367      1.12463679
H       0.28850605     -1.73158603     -0.53448750
H      -1.93731855     -1.09000541     -1.42675125
H      -2.11798373     -2.35679576     -0.20412975
H      -2.50831937      1.15246802     -0.85425196
H      -3.09809903      1.49428871      0.77922289
H      -0.70793365      2.24032546      0.46508167
H      -0.88006910      1.03839552      1.75817602
