25
CCOP(=O)(N=C1SCS1)OCC
C      -2.46424101     -2.14025480      0.85505159
C      -1.70202051     -1.34463247     -0.18402263
O      -0.52344005     -0.83254354      0.41407214
P       0.33375788      0.22385351     -0.45974618
O       0.45657724     -0.19908188     -1.89417976
N       1.69775893      0.49077503      0.31903220
C       2.59551517     -0.40273919      0.42325414
S       4.10166954     -0.28004566      1.22627862
C       4.50302907     -1.57449819      0.01460159
S       2.74458502     -2.02848789     -0.06356256
O      -0.57488092      1.55435686     -0.32086748
C      -0.71049034      2.14069118      0.96122516
C      -1.81369705      3.17725962      0.90376286
H      -1.84860242     -2.95893390      1.24218382
H      -2.72563155     -1.50699666      1.70935923
H      -3.38170189     -2.55808680      0.43137833
H      -1.42833568     -1.98961454     -1.02472941
H      -2.32069744     -0.52076645     -0.55373049
H       5.16098026     -2.36274532      0.39084086
H       4.91454628     -1.19881843     -0.92772552
H      -0.95706718      1.37582153      1.70401558
H       0.23443192      2.61595319      1.24180097
H      -1.58455574      3.94403640      0.15634419
H      -1.94662685      3.66028450      1.87581663
H      -2.76086265      2.71521391      0.60613626
