41
O=[N+]([O-])c1cc(S(=O)(=O)Nc2ccccc2)ccc1Nc1ccccc1
O       1.65454074     -0.85765191     -3.10268361
N       0.50610855     -0.78357692     -2.63758991
O      -0.49855863     -0.46074488     -3.28680743
C       0.32113810     -1.11335987     -1.22319331
C      -0.90753947     -1.68017304     -0.84562890
C      -1.13072457     -1.98196236      0.49816958
S      -2.68305010     -2.69779804      0.99824138
O      -2.43476518     -3.46400126      2.20104849
O      -3.28194003     -3.30630196     -0.16904398
N      -3.58577508     -1.35450762      1.47222094
C      -3.71593596     -0.24859928      0.58789056
C      -3.15832987      0.97733851      0.95594729
C      -3.22166799      2.06198509      0.07977135
C      -3.84335835      1.92103718     -1.16040147
C      -4.40783866      0.69871512     -1.52317885
C      -4.34638499     -0.38647253     -0.64807706
C      -0.13355862     -1.76312994      1.44831090
C       1.08581840     -1.20008541      1.05514496
C       1.34607018     -0.85677314     -0.28388347
N       2.56069930     -0.23704162     -0.64113083
C       3.43319602      0.61546562      0.05928893
C       3.04087193      1.37032870      1.17043139
C       3.95824352      2.17205903      1.85719763
C       5.28714168      2.22275307      1.44562029
C       5.69786558      1.47377235      0.34703195
C       4.77732199      0.67536444     -0.33731220
H      -1.68343916     -1.87334778     -1.58530028
H      -3.50632299     -1.16457336      2.46958259
H      -2.66237338      1.09999451      1.91427980
H      -2.78428564      3.01689210      0.36073020
H      -3.89007084      2.76425236     -1.84575502
H      -4.89477280      0.58913565     -2.48934005
H      -4.79642328     -1.33214938     -0.94087614
H      -0.28731840     -2.03085123      2.49216291
H       1.85682696     -1.06139302      1.81177809
H       2.83202543     -0.37798485     -1.61774191
H       2.00621674      1.37362839      1.49956215
H       3.63149844      2.76024742      2.71072811
H       6.00070833      2.84536059      1.97885793
H       6.73462847      1.50586138      0.02237640
H       5.12351363      0.08828786     -1.18494213
