51
C#C[C@]1(O)CC[C@H]2[C@@H]3CCC4=CC(=O)CC[C@]4(C)[C@H]3CC[C@@]21C
C       4.36087957      2.07522839     -1.26389569
C       4.06309020      1.12212491     -0.59554430
C       3.71697235     -0.05560520      0.23010830
O       4.61486230     -0.09689662      1.33035317
C       3.84491516     -1.35333978     -0.61088004
C       2.41754143     -1.74224874     -1.04776749
C       1.53898976     -0.57989927     -0.58965229
C       0.03541033     -0.82481595     -0.40870047
C      -0.60700608     -1.32737584     -1.70855845
C      -2.10442377     -1.54461776     -1.53544898
C      -2.80288679     -0.30441582     -1.03004284
C      -3.90366748      0.14062588     -1.66221700
C      -4.69835211      1.27611754     -1.14127874
O      -5.67683912      1.66885420     -1.77175937
C      -4.31923910      1.84861589      0.19816974
C      -2.81120982      1.78969334      0.39398172
C      -2.20833780      0.36397108      0.21731285
C      -2.58188418     -0.49355276      1.44739562
C      -0.64615901      0.50360296      0.04659006
C       0.06615584      1.12801833      1.27747223
C       1.59150037      1.25039292      1.10505847
C       2.23153113     -0.08984913      0.70044260
C       2.09230443     -1.07998627      1.89512988
H       4.62231642      2.92442749     -1.85248035
H       5.51323168     -0.02676666      0.96493359
H       4.28725669     -2.16860114     -0.02542572
H       4.48860217     -1.21734708     -1.48836352
H       2.36285354     -1.88885172     -2.13149915
H       2.11896850     -2.68321554     -0.57207200
H       1.63471449      0.20097972     -1.36109650
H      -0.11442155     -1.59754752      0.35305180
H      -0.42899659     -0.61001625     -2.52023558
H      -0.14835629     -2.27442695     -2.01579336
H      -2.27698695     -2.36372764     -0.82643898
H      -2.52460368     -1.87428709     -2.49363782
H      -4.30573377     -0.33478889     -2.55033950
H      -4.85218852      1.29817588      0.97972566
H      -4.64526345      2.89399653      0.23399786
H      -2.57605171      2.18902015      1.38778061
H      -2.34952776      2.47327629     -0.33243671
H      -2.32581058      0.01192267      2.38441616
H      -3.65798061     -0.70055207      1.48165750
H      -2.07316272     -1.46254189      1.44749376
H      -0.48721599      1.21820166     -0.77771627
H      -0.14812558      0.54652327      2.17914834
H      -0.32505073      2.13433925      1.46393374
H       1.77394714      2.01654674      0.34248116
H       2.03854733      1.62531560      2.03362023
H       2.56879395     -0.66857572      2.79277725
H       2.56349154     -2.04752798      1.69552207
H       1.05260537     -1.28859339      2.15913750
