22
CCCOCC(C)O
C       3.60128244     -0.37975575      0.94982763
C       2.49707162     -0.27323391     -0.08640285
C       1.13435908     -0.05341258      0.55738466
O       0.15879761      0.03477549     -0.48116108
C      -1.15766556      0.24335929      0.04979832
C      -2.13105712      0.31586666     -1.13013547
C      -3.56161849      0.53858669     -0.67264353
O      -2.07247641     -0.91307469     -1.86010965
H       3.66827224      0.53518465      1.54706545
H       3.42318205     -1.22059196      1.62774508
H       4.56733580     -0.53711813      0.46010846
H       2.71385601      0.54959240     -0.77818386
H       2.47196126     -1.18278205     -0.69853720
H       0.88830125     -0.89085024      1.22030441
H       1.13434103      0.87569538      1.13881055
H      -1.41003064     -0.60215580      0.70029646
H      -1.18020537      1.17454947      0.62646217
H      -1.82684298      1.11141510     -1.81938259
H      -3.66150298      1.47917739     -0.12274399
H      -4.23838145      0.56337599     -1.53352592
H      -3.90074939     -0.28188870     -0.03067054
H      -1.11822999     -1.08671470     -1.98389490
