46
CCCN(CCO)C(=O)c1cc2ccccn2c1-c1ccccc1
C       3.78991270      1.70246479      0.37978068
C       3.25046293      0.46353203     -0.31572176
C       2.09230026     -0.15608571      0.46696714
N       1.55709428     -1.34173200     -0.20826690
C       2.27651662     -2.60765360     -0.01272144
C       1.43967164     -3.65206997      0.74098813
O       0.58854688     -4.39416523     -0.12811552
C       0.52114973     -1.31220638     -1.14380492
O       0.20134331     -2.30980238     -1.78889078
C      -0.20130136     -0.06214435     -1.32344739
C      -0.07974865      0.83889646     -2.41438943
C      -0.96602748      1.86829057     -2.20092988
C      -1.29081926      3.04910613     -2.92991807
C      -2.26322870      3.86370274     -2.47944524
C      -2.99984891      3.56550086     -1.26453004
C      -2.69015343      2.45764937     -0.57103822
N      -1.66869891      1.61289230     -1.02449519
C      -1.18542179      0.43379767     -0.46684306
C      -1.68101779     -0.15144533      0.78285933
C      -2.26555153     -1.42356891      0.77977480
C      -2.70723632     -2.00121683      1.97151698
C      -2.56685161     -1.31248085      3.17506348
C      -1.98100323     -0.04782129      3.18961256
C      -1.53580195      0.52940103      1.99864449
H       4.15703384      1.46070212      1.38230455
H       3.01383948      2.46890117      0.47293070
H       4.62003741      2.12764219     -0.19289447
H       2.92194792      0.73068647     -1.32665765
H       4.05996302     -0.26641263     -0.43171739
H       1.31063195      0.59372360      0.60497115
H       2.41515205     -0.45335561      1.47189091
H       3.18905219     -2.40191922      0.55748099
H       2.56847065     -2.98969513     -0.99785779
H       2.10584762     -4.37782538      1.21753277
H       0.82526893     -3.18891507      1.51972938
H       0.25243393     -3.77357234     -0.81132596
H       0.58525279      0.73563418     -3.26223946
H      -0.75363654      3.27756762     -3.84506293
H      -2.52717273      4.76517038     -3.02384170
H      -3.78892175      4.23821982     -0.94766318
H      -3.21252666      2.17752792      0.33430093
H      -2.37833497     -1.97679703     -0.15098214
H      -3.15616901     -2.99133070      1.95790178
H      -2.91042700     -1.76491002      4.10184391
H      -1.86583311      0.48632464      4.12908513
H      -1.06619746      1.50979190      2.02762075
