34
Cc1cnc2c(ccc3c(C)c(C)cnc32)c1C
C       4.84654676      1.41768613      0.81296422
C       3.38555275      1.09915166      0.70364705
C       2.48634275      1.76575710      1.51720102
N       1.15541966      1.56400821      1.50790801
C       0.61431254      0.65725940      0.66201088
C       1.45025697     -0.07938030     -0.21371586
C       0.85552302     -1.01184923     -1.07797095
C      -0.51969681     -1.21493352     -1.08210683
C      -1.36364395     -0.49493131     -0.22216847
C      -2.78016643     -0.68308429     -0.20493566
C      -3.42470354     -1.68589217     -1.13367839
C      -3.56233904      0.07306812      0.68280645
C      -5.05365436     -0.04441258      0.78328088
C      -2.89899389      0.97042008      1.50106319
N      -1.56653894      1.16201214      1.49975329
C      -0.78147193      0.45112726      0.65782364
C       2.86057219      0.14993300     -0.18799460
C       3.77291240     -0.62297655     -1.11204041
H       5.22639832      1.79898692     -0.14027487
H       5.03680557      2.18650722      1.56989582
H       5.41060313      0.52643551      1.10597265
H       2.81445473      2.51485091      2.23358725
H       1.45301779     -1.60175510     -1.76863313
H      -0.91710520     -1.95175681     -1.77576452
H      -3.22278848     -1.41767031     -2.17608641
H      -4.51080872     -1.73805431     -1.02640621
H      -3.03858685     -2.69023386     -0.92987077
H      -5.46245840      0.63591052      1.53844077
H      -5.33770845     -1.06092542      1.07371942
H      -5.52191998      0.21166717     -0.17248572
H      -3.43382813      1.59205174      2.21488050
H       3.50823079     -0.42367435     -2.15585354
H       3.69238171     -1.69622742     -0.90962449
H       4.82708188     -0.35907379     -0.99833258
