19
O=C(O)CNC(=S)SCC(=O)O
O       3.14401663      0.96535768      0.58948264
C       2.93778048     -0.23705854      0.54746990
O       3.96520758     -1.10734585      0.63343771
C       1.58996614     -0.93602568      0.46432375
N       0.55058748     -0.02065728      0.00404450
C       0.17540916      0.21452739     -1.28792868
S       0.64408068     -0.63302212     -2.64146524
S      -0.89830942      1.59516710     -1.36256281
C      -2.46001850      0.77950437     -0.92153356
C      -2.56937434      0.51865888      0.56318247
O      -1.76540718      0.78338244      1.44325178
O      -3.73580850     -0.08590140      0.87840835
H       4.75793140     -0.53135302      0.67777178
H       1.31038183     -1.27114084      1.46716791
H       1.66226875     -1.79641165     -0.20505197
H       0.22841002      0.67123477      0.67901956
H      -3.27733516      1.44695124     -1.21046174
H      -2.55758266     -0.16453518     -1.46530049
H      -3.70220440     -0.19133230      1.85306663
