25
Cc1cccc(C)c1OCC(=O)O
C       0.07294016      2.53684744     -0.41135718
C      -0.77750989      1.31708162     -0.19929899
C      -2.14704308      1.37555388     -0.48808708
C      -2.96022640      0.25886043     -0.29816613
C      -2.41698003     -0.92822162      0.19179388
C      -1.05101714     -1.01716569      0.48957462
C      -0.49476627     -2.30824234      1.01850671
C      -0.23482384      0.09926758      0.24313489
O       1.10925703      0.02132854      0.51268589
C       1.82204115     -0.40823137     -0.65987061
C       3.29888441     -0.47880479     -0.31264237
O       4.17221088     -0.81346301     -1.09984697
O       3.56639103     -0.13132502      0.97094692
H       0.53364330      2.50681888     -1.40327226
H       0.85819200      2.60703833      0.34825236
H      -0.52581119      3.45085423     -0.33428002
H      -2.59238052      2.29674623     -0.85824689
H      -4.02247938      0.31696792     -0.52302159
H      -3.07056781     -1.78433921      0.34614692
H      -1.26831233     -2.88603100      1.53584602
H      -0.10148501     -2.91363109      0.19638846
H       0.30368241     -2.12545668      1.74488288
H       1.70123298      0.31529375     -1.47257708
H       1.49916009     -1.40925544     -0.96363612
H       2.72576743      0.10150844      1.42614374
