54
CC12CCC(=O)C=C1CCC1C2CCC2(C)C(C(=O)CO)CCC12
C      -2.49283031      0.99033916      1.91097829
C      -2.57342134      0.55197897      0.43142238
C      -3.33991041      1.64136157     -0.37667388
C      -4.83940073      1.65860548     -0.11718512
C      -5.43213973      0.29810161     -0.36881483
O      -6.58413308      0.14531448     -0.76711890
C      -4.61264827     -0.88962670     -0.03698772
C      -3.33427546     -0.77971038      0.36687594
C      -2.58593362     -2.01373868      0.81294557
C      -1.22986573     -2.13909413      0.13055112
C      -0.38506437     -0.87548850      0.33963753
C      -1.14388592      0.37215344     -0.21041361
C      -0.26449376      1.65062611     -0.15715479
C       1.13007604      1.46181754     -0.78007526
C       1.86545624      0.26009431     -0.17122828
C       2.20556089      0.54243080      1.31636726
C       3.11440283     -0.21292281     -0.95751140
C       4.38391282      0.61940778     -0.80687735
O       4.37382741      1.79108646     -0.42088472
C       5.69793512     -0.01786692     -1.25208892
O       6.73877433      0.94392890     -1.34770198
C       3.27410136     -1.68671132     -0.51704192
C       1.89257173     -2.14645526     -0.01820146
C       0.96958318     -0.98456386     -0.36949819
H      -3.48035743      0.98268250      2.38711308
H      -2.10055066      2.00797120      2.00926811
H      -1.85057719      0.33225549      2.50439744
H      -3.18533955      1.47388393     -1.45193173
H      -2.93987180      2.63863496     -0.15799053
H      -5.31314393      2.37512191     -0.79730512
H      -5.07066116      1.95882571      0.90956611
H      -5.13453643     -1.83904250     -0.08924883
H      -3.16527847     -2.92346160      0.61265220
H      -2.44700652     -1.97133174      1.90029861
H      -0.71050659     -3.01336500      0.53990719
H      -1.37138532     -2.32645527     -0.94179608
H      -0.22106308     -0.76464488      1.41668443
H      -1.30836450      0.17383724     -1.28233946
H      -0.14883290      1.98945848      0.87720040
H      -0.75826681      2.46702991     -0.69546256
H       1.71278349      2.38096085     -0.64872083
H       1.01325642      1.32303453     -1.86271648
H       2.75171660      1.48502336      1.42488473
H       1.31471391      0.63424102      1.94306270
H       2.82677258     -0.24109252      1.76117336
H       2.88753525     -0.20188833     -2.03372831
H       5.56582696     -0.47390536     -2.23653952
H       5.99879522     -0.77534612     -0.52474030
H       6.43276345      1.72664331     -0.84419281
H       4.01573180     -1.80620719      0.28052341
H       3.60553050     -2.30158018     -1.36154934
H       1.58471176     -3.07668777     -0.50648587
H       1.91628247     -2.33067499      1.06162848
H       0.75112273     -1.08498900     -1.44625773
