17
CC(C)CCBr
C      -0.91248322      1.15958820      0.58864623
C      -0.47876156      0.12663632     -0.45251780
C      -1.62161317     -0.85827035     -0.71060027
C       0.78642892     -0.64001920     -0.02580316
C       2.00743789      0.25612182      0.11563052
Br      3.57585715     -0.83041867      0.51542780
H      -1.84743294      1.64474198      0.28784516
H      -0.16229390      1.94754672      0.70486801
H      -1.07338938      0.69389496      1.56680538
H      -0.27051417      0.65321391     -1.39258303
H      -1.87935204     -1.41503518      0.19684025
H      -2.51943075     -0.33222577     -1.05217038
H      -1.34523807     -1.58124089     -1.48539121
H       0.99513914     -1.41805699     -0.77216497
H       0.60012242     -1.16531401      0.92022303
H       2.23055666      0.79484085     -0.80912130
H       1.91496701      0.96399631      0.94260202
