41
COC1=CC(=O)CC(C)C12Oc1c(Cl)c(OC)cc(OC)c1C2=O
C      -2.31297344      0.57700211      3.64599109
O      -1.62269777      0.12796672      2.48499963
C      -2.35859863     -0.15285667      1.34456698
C      -3.69418247     -0.02375736      1.24348129
C      -4.40895242     -0.30422024     -0.02501628
O      -5.63168645     -0.18550249     -0.05789966
C      -3.60726070     -0.67528914     -1.24921391
C      -2.32994885     -1.42390482     -0.86761480
C      -1.53708584     -1.80475197     -2.12264096
C      -1.50277251     -0.64034158      0.17642040
O      -0.45907394     -1.52569453      0.67168663
C       0.73736331     -0.87885601      0.46587496
C       1.97328942     -1.38515757      0.83435899
Cl      2.07114606     -2.92657019      1.60910233
C       3.12732311     -0.62548848      0.56158529
O       4.32331548     -1.17749402      0.94727021
C       5.51215563     -0.43174751      0.72366853
C       3.00429152      0.62654340     -0.08064499
C       1.75050353      1.13098097     -0.45220368
O       1.52674798      2.31972350     -1.07733368
C       2.64673630      3.14730182     -1.36075009
C       0.64418064      0.34904810     -0.16035881
C      -0.76666822      0.56179063     -0.40410032
O      -1.25831448      1.52054018     -0.97300109
H      -3.01893144     -0.18157766      3.99884796
H      -2.82000376      1.52828961      3.45547839
H      -1.57250635      0.74144810      4.43431254
H      -4.33401567      0.30949697      2.05007874
H      -3.39571768      0.23862919     -1.81376323
H      -4.23254542     -1.32155236     -1.87676194
H      -2.62598932     -2.37487060     -0.39855859
H      -0.64430394     -2.38444625     -1.86805575
H      -1.22371234     -0.92156866     -2.68849717
H      -2.14957720     -2.42279029     -2.78834237
H       5.49089693      0.51789636      1.26818762
H       6.35192407     -1.01761505      1.10954144
H       5.68143896     -0.27257516     -0.34620259
H       3.89379812      1.20703458     -0.29333307
H       2.27777617      4.05590850     -1.84610307
H       3.15988670      3.44515154     -0.44048954
H       3.33474493      2.65387633     -2.05499711
