31
Cc1ccc(OCCCS(=O)(=O)[O-])c([N+](=O)[O-])c1.[Na+]
C       4.64282037      1.71556595     -0.29985454
C       3.32228193      1.00644910     -0.26756456
C       2.18269213      1.64926825      0.23097236
C       0.93256262      1.01186519      0.23131183
C       0.78878506     -0.28389907     -0.27383056
O      -0.39357602     -0.96899543     -0.34054923
C      -1.53748534     -0.34436314      0.26027960
C      -2.73634151     -1.27086501      0.08743933
C      -3.92876728     -0.89974243      0.96229046
S      -4.50073779      0.77369716      0.77023242
O      -4.62723086      0.92836457     -0.67607193
O      -5.76269764      0.77454962      1.50547023
O      -3.43695098      1.56685604      1.38463650
C       1.93513761     -0.90901281     -0.77354317
N       1.85601704     -2.25526734     -1.30115711
O       2.11723646     -2.40221554     -2.50517192
O       1.62283203     -3.17294577     -0.50132409
C       3.19187174     -0.28316006     -0.78780505
Na      0.00000000      0.00000000      0.00000000
H       4.73298440      2.41130093      0.54098522
H       5.47076684      1.00310071     -0.22167591
H       4.74460133      2.27480989     -1.23494006
H       2.24969975      2.66328043      0.62264017
H       0.08442725      1.56862706      0.62590220
H      -1.34174860     -0.18584639      1.32734013
H      -1.73355410      0.60474709     -0.24957076
H      -2.43895544     -2.30227609      0.31498653
H      -3.02751074     -1.27765200     -0.97028958
H      -3.69244752     -1.04091038      2.02256170
H      -4.77196640     -1.55476414      0.71641253
H       4.05525366     -0.80056639     -1.20011276
