23
Clc1ccc(Oc2cc(Cl)c(Cl)cc2Cl)c(Cl)c1
Cl     -4.64440210      1.51112551      2.05012892
C      -3.32872461      0.66328892      1.33601295
C      -2.12677730      0.54175677      2.03401338
C      -1.05586292     -0.14507073      1.45924250
C      -1.18992365     -0.69479910      0.17918476
O      -0.15674989     -1.40965045     -0.38718442
C       1.03271757     -0.73275012     -0.55140405
C       1.08475045      0.44984312     -1.29783785
C       2.30705610      1.10034513     -1.48856247
Cl      2.30164085      2.56355131     -2.40640432
C       3.47956169      0.55933768     -0.94550543
Cl      5.02174286      1.31341095     -1.14030787
C       3.42902075     -0.63385964     -0.21852855
C       2.20810018     -1.28231742     -0.02838890
Cl      2.18580838     -2.74978940      0.87798070
C      -2.40668616     -0.58702192     -0.50537498
Cl     -2.61348304     -1.27236918     -2.07553764
C      -3.47637978      0.10005772      0.06968612
H      -2.02151677      0.97129393      3.02758257
H      -0.13082715     -0.25906226      2.01847630
H       0.17930042      0.85755374     -1.74055341
H       4.34029544     -1.05804224      0.19677669
H      -4.41866133      0.19316767     -0.46349502
