24
CCCCCCCS
C       3.98153399      0.36652614      0.44504014
C       2.77761106     -0.44619098     -0.00392128
C       1.47029971      0.30619003      0.24320423
C       0.26179037     -0.51471636     -0.20976021
C      -1.04659013      0.23820929      0.03754888
C      -2.25656606     -0.58312026     -0.41571939
C      -3.55618538      0.17653729     -0.16462720
S      -4.98610103     -0.80077909     -0.70979264
H       3.92807339      0.58817852      1.51571658
H       4.90533161     -0.19020385      0.25913202
H       4.04046325      1.31414769     -0.09982396
H       2.87799144     -0.67819240     -1.07060014
H       2.76620725     -1.40013869      0.53603978
H       1.48860388      1.26135008     -0.29568805
H       1.37682255      0.53943191      1.31087969
H       0.35535956     -0.74772416     -1.27744144
H       0.24357982     -1.46973707      0.32930945
H      -1.02825567      1.19323666     -0.50159295
H      -1.14010472      0.47111321      1.10530404
H      -2.15545371     -0.81371181     -1.48380012
H      -2.26680559     -1.53734714      0.12604082
H      -3.55904016      1.12504883     -0.71104558
H      -3.67421228      0.39848417      0.90079711
H      -4.80435314     -1.82664055      0.13480021
