25
CCSC(=S)N[C@@H](CC(=O)O)C(=O)O
C       2.92153717      0.90971686      0.38790444
C       2.95691756     -0.34623050      1.24098622
S       1.32601868     -1.14123002      1.35035003
C       1.10449548     -1.75899742     -0.27036117
S       2.17101000     -2.76324342     -1.06919028
N      -0.06386693     -1.41714966     -0.89454229
C      -1.23607910     -0.69044760     -0.36841404
C      -1.06156969      0.81951946     -0.52041443
C      -1.97191736      1.52231954      0.44000569
O      -2.93799635      1.01931055      0.99569804
O      -1.64985300      2.81317709      0.61656002
C      -2.45250771     -1.15705236     -1.18368109
O      -2.35809939     -1.71098895     -2.27278152
O      -3.65015391     -0.89437410     -0.61557201
H       2.65057252      0.69309254     -0.65010910
H       3.91126195      1.37846836      0.37778892
H       2.21445363      1.64455871      0.78721901
H       3.71108865     -1.04661222      0.87143434
H       3.25351341     -0.07435673      2.25957820
H      -0.19592192     -1.85015345     -1.80940523
H      -1.38670464     -1.00913428      0.66869621
H      -1.29742122      1.15409490     -1.53657673
H      -0.03428729      1.11602440     -0.28827117
H      -2.31323320      3.17925653      1.23949762
H      -3.61125735     -0.38956823      0.23255755
