28
O=C(O)c1ccccc1N=Nc1ccc(O)cc1
O      -2.76252485     -0.72850794      2.73508891
C      -2.27926954     -0.97063042      1.64350546
O      -1.41074166     -1.98108372      1.47253431
C      -2.65165551     -0.30265629      0.38184845
C      -3.99739640      0.07447835      0.23816799
C      -4.43224698      0.69987683     -0.93022262
C      -3.52670095      0.95653023     -1.95609456
C      -2.18432838      0.59942985     -1.80671881
C      -1.72345092     -0.01877230     -0.63287066
N      -0.35328804     -0.32648265     -0.53951603
N       0.23702212      0.55632123      0.12164311
C       1.61358125      0.27963470      0.23989639
C       2.10868397     -0.98599738      0.58892924
C       3.48212579     -1.20220289      0.72324525
C       4.36600158     -0.14995411      0.51882755
O       5.69761234     -0.40289427      0.66089134
C       3.90010988      1.11703998      0.18474154
C       2.52423289      1.32725779      0.05111648
H      -1.28476424     -2.33991816      2.37499842
H      -4.70884252     -0.12576488      1.03743531
H      -5.47613199      0.98469849     -1.03913974
H      -3.86085378      1.44129665     -2.87033135
H      -1.47921678      0.81420739     -2.60684872
H       1.41892518     -1.80920114      0.75701227
H       3.85750400     -2.18640200      0.98814123
H       6.19077349      0.41614623      0.48991011
H       4.58171415      1.94680799      0.02814125
H       2.15312590      2.31674246     -0.20432339
