19
C=COCC(C)C
C       2.96322225      1.10423270     -0.60445133
C       2.08338322      1.48401475      0.32877642
O       0.85735152      0.96044330      0.62224582
C       0.41380978     -0.15210465     -0.15813904
C      -0.97718175     -0.58197667      0.33002256
C      -1.42699191     -1.85078894     -0.39145392
C      -2.00639518      0.53360362      0.13455301
H       3.90483310      1.63459644     -0.70703791
H       2.78876503      0.27766242     -1.28171577
H       2.28278827      2.31639308      0.99607928
H       1.11602357     -0.98587021     -0.03399944
H       0.36717721      0.12879028     -1.21791063
H      -0.91976207     -0.79080385      1.40598050
H      -1.50515455     -1.68770978     -1.47176957
H      -2.40582383     -2.17970374     -0.02674647
H      -0.71664200     -2.66688453     -0.22226573
H      -2.99388848      0.21534390      0.48553880
H      -1.72957054      1.43092149      0.69738210
H      -2.09594364      0.80984039     -0.92158677
