34
CN1C(=O)C(O)N=C(c2ccccc2)c2cc(Cl)ccc21
C      -3.36622461     -0.66058419      1.44754396
N      -2.33974418     -0.65442184      0.41347919
C      -2.12683429     -1.85961517     -0.27127503
O      -2.66971020     -2.91658319      0.07119783
C      -1.20748768     -1.80822796     -1.52595050
O      -1.37457181     -2.98133696     -2.30733756
N       0.15717835     -1.66087193     -1.04404757
C       0.49935561     -0.52570433     -0.53450552
C       1.89401350     -0.40879746     -0.00004588
C       2.17307453      0.34646465      1.14627978
C       3.48360389      0.43488561      1.62075379
C       4.51334041     -0.23616333      0.96122199
C       4.23623817     -1.00404976     -0.16926822
C       2.92828799     -1.09548266     -0.64742674
C      -0.40139841      0.66295234     -0.45288248
C       0.13633192      1.89942298     -0.85580179
C      -0.60500599      3.06512193     -0.70460525
Cl      0.06306284      4.57466318     -1.18281979
C      -1.87969808      3.01472034     -0.15657220
C      -2.42696702      1.78421490      0.22203848
C      -1.71406816      0.58141358      0.05733073
H      -4.32831123     -0.39897871      0.99602627
H      -3.11172030      0.04538094      2.24451783
H      -3.45991882     -1.65057305      1.90446383
H      -1.51440298     -0.98176545     -2.17613255
H      -1.16183410     -3.70060858     -1.68617870
H       1.38353624      0.85607463      1.69127338
H       3.70179619      1.01996278      2.51091903
H       5.53244305     -0.16964392      1.33474522
H       5.03681533     -1.53713663     -0.67612853
H       2.71874854     -1.70312788     -1.52539952
H       1.13715073      1.95507365     -1.27959018
H      -2.46325327      3.92438411     -0.03390201
H      -3.44382616      1.78893739      0.60807873
