25
CCc1ccc(NC(C)=O)cc1
C       4.01456675      0.53071425      0.61129283
C       3.28384408     -0.73845089      0.20053101
C       1.80628078     -0.50205711      0.02333658
C       1.29033631     -0.10739753     -1.21466756
C      -0.07994891      0.12615236     -1.36880659
C      -0.95925230     -0.02557424     -0.28953949
N      -2.32505757      0.23047822     -0.53069433
C      -3.37159109      0.13889575      0.36896842
C      -4.69646059      0.48841436     -0.26268865
O      -3.31071330     -0.20301620      1.54435156
C      -0.44298760     -0.41211807      0.94687842
C       0.92839175     -0.64640826      1.10293702
H       3.90043266      1.31672037     -0.14292874
H       3.63274781      0.91923101      1.56152954
H       5.08366758      0.32948255      0.73227262
H       3.70994064     -1.12574720     -0.73301468
H       3.44491624     -1.51924888      0.95384013
H       1.95182409      0.02184510     -2.06831303
H      -0.44475947      0.42941177     -2.34639342
H      -2.56046176      0.50473090     -1.47567240
H      -5.09336641     -0.38865026     -0.78048412
H      -4.58664082      1.31565466     -0.96986426
H      -5.39909834      0.79977502      0.51570079
H      -1.07930792     -0.54000116      1.81684591
H       1.30269741     -0.94283653      2.08061724
