37
CCC1(C2=CC3CCC(C2)C3)C(=O)NC(=O)NC1=O
C      -3.31435515     -1.85581307      0.56598869
C      -1.81628146     -1.76554487      0.27375908
C      -1.27629718     -0.31320588      0.11659368
C       0.24130632     -0.23360204     -0.19079600
C       1.06637127     -1.30188221     -0.27686360
C       2.54326979     -1.15904985     -0.57781498
C       3.27624695     -0.72765655      0.69775121
C       3.09011365      0.79785499      0.75314733
C       2.37688498      1.17435464     -0.56114613
C       0.83840877      1.16216942     -0.40128775
C       2.78121162      0.03865416     -1.49849006
C      -2.00089546      0.32303668     -1.06836419
O      -2.04687890     -0.18441279     -2.18954504
N      -2.60954953      1.52833268     -0.85619359
C      -2.76494379      2.16154542      0.33383685
O      -3.42064856      3.19314182      0.43084300
N      -2.17815153      1.58883509      1.41505471
C      -1.49481494      0.40544745      1.44695407
O      -1.07930304     -0.01953146      2.52562126
H      -3.91061492     -1.41995739     -0.24097122
H      -3.60930568     -2.90578340      0.66464867
H      -3.57443282     -1.35038934      1.50068762
H      -1.29111019     -2.27863017      1.09012846
H      -1.62149954     -2.34236962     -0.63999435
H       0.71811312     -2.31728606     -0.11254862
H       2.93925266     -2.08706191     -1.00022592
H       2.89915548     -1.21689416      1.60242819
H       4.34454972     -0.96216402      0.61640772
H       2.52575973      1.10735529      1.63903340
H       4.07264372      1.28153475      0.80405562
H       2.70428505      2.15424939     -0.92297930
H       0.56893598      1.82092580      0.43140446
H       0.40104912      1.59214154     -1.31073987
H       2.18366050      0.00656995     -2.41611443
H       3.83890106      0.11617719     -1.77786838
H      -3.08436248      1.93699709     -1.64925182
H      -2.31667427      2.05191143      2.30257837
