17
Cc1cc(O)ccc1O
C      -2.03958297      1.01488340      0.37541512
C      -0.71277169      0.35654616      0.13125816
C       0.44492331      1.13009889     -0.03632127
C       1.67010872      0.50586732     -0.26232573
O       2.81457632      1.22844716     -0.42941638
C       1.76661484     -0.87908985     -0.32517147
C       0.62271043     -1.65874618     -0.16010330
C      -0.60575826     -1.03796582      0.06633404
O      -1.73582563     -1.78884156      0.23005776
H      -2.44916383      0.69662987      1.33952949
H      -1.94850105      2.10596860      0.39694569
H      -2.74383103      0.75598743     -0.42180776
H       0.37918539      2.21286771      0.01118593
H       2.59619594      2.17231320     -0.36106039
H       2.73007806     -1.34825870     -0.50216756
H       0.70872237     -2.73925457     -0.21092745
H      -1.49768094     -2.72745306      0.15857509
