32
CC(C)(CO)C(O)C(=O)NCCC(=O)O
C      -2.31005698      0.17754378      2.12409929
C      -2.32109537      0.00132392      0.59129555
C      -3.65863814     -0.69293756      0.23371790
C      -2.32298578      1.38477795     -0.09901371
O      -1.01885930      1.91623164     -0.27922038
C      -1.15265375     -0.90627119      0.11313068
O      -1.16079475     -1.02889573     -1.31860969
C       0.27802056     -0.50131527      0.54836882
O       0.53785690      0.37297032      1.36861704
N       1.24914680     -1.24728946     -0.09285192
C       2.66500715     -0.99231399      0.08725958
C       3.13315765      0.22567682     -0.69724834
C       4.60885068      0.42790329     -0.52051623
O       5.39119189     -0.30060442      0.06507590
O       5.04071289      1.55307297     -1.12342922
H      -2.19179275     -0.78644208      2.63129831
H      -1.51356754      0.84318494      2.46595897
H      -3.25055596      0.61936817      2.47478020
H      -3.75029327     -0.86129468     -0.84504185
H      -4.51641057     -0.08542152      0.54496010
H      -3.74281894     -1.66642381      0.73017986
H      -2.91972711      2.11227936      0.46268524
H      -2.76631435      1.31727118     -1.09885375
H      -0.56876014      1.93013360      0.59160460
H      -1.30561333     -1.91744215      0.51298476
H      -0.96455214     -0.13384300     -1.66250110
H       0.93695249     -1.80170736     -0.88617449
H       2.86064094     -0.85644370      1.15745787
H       3.19498208     -1.89430831     -0.23775111
H       2.61267494      1.12479167     -0.34999274
H       2.92373847      0.09026704     -1.76404295
H       6.00255673      1.57615757     -0.93581675
