24
CCOC(=O)Cc1ccccc1
C       4.60860745     -0.11405626     -0.11424254
C       3.27603671      0.54821362     -0.40523200
O       2.23515162     -0.31089348      0.07621266
C       0.97170497      0.17318664     -0.12562308
O       0.71869089      1.24043588     -0.66567206
C      -0.02843096     -0.82146037      0.42408495
C      -1.47089244     -0.40478474      0.26364502
C      -2.18742050     -0.75126566     -0.89057600
C      -3.51829589     -0.35832689     -1.04123250
C      -4.14350167      0.38798219     -0.04430291
C      -3.43784675      0.74572183      1.10278109
C      -2.10686783      0.35420386      1.25619680
H       5.43772446      0.50674110     -0.46502726
H       4.72641651     -0.28730426      0.96056495
H       4.66772831     -1.09229383     -0.60277203
H       3.22404321      1.51525681      0.10739718
H       3.16425252      0.69514078     -1.48531587
H       0.18532382     -0.97315688      1.48908677
H       0.12637635     -1.78213932     -0.08194126
H      -1.71308585     -1.32515545     -1.68342351
H      -4.06576025     -0.62958783     -1.94003981
H      -5.17829070      0.69712392     -0.16466583
H      -3.92256284      1.33559206      1.87625233
H      -1.56910113      0.65082628      2.15384492
