8
O=C(O)C(Br)Br
O      -0.86124656     -1.33943843     -0.65026078
C      -0.50632829     -0.35063681     -0.02734144
O      -1.40594404      0.29616424      0.75157500
C       0.84845487      0.31315829     -0.02268874
Br      2.21427304     -1.05692079      0.10394674
Br      0.97595466      1.38567424     -1.63068773
H      -2.23505513     -0.21651976      0.63261462
H       0.96989146      0.96851901      0.84284233
