65
CN(C)CCCn1nc(-c2cnc3[nH]cc(C(=O)NC(C)(C)CO)c3n2)c2cc(OC(F)F)ccc21
C       7.53821623      2.69602921      1.34249195
N       6.24343874      2.30573168      0.77329571
C       6.15952981      2.77789857     -0.61194322
C       5.14939581      2.83937395      1.60186506
C       3.78666088      2.21856633      1.28098243
C       3.79138584      0.70262924      1.46279789
N       2.48809383      0.12583557      1.17580304
N       1.58249393      0.03313195      2.16851509
C       0.50194930     -0.52340179      1.59072842
C      -0.72730378     -0.78028079      2.34844890
C      -0.68110486     -0.93161207      3.73677930
N      -1.75797405     -1.20284892      4.52412128
C      -2.87844509     -1.29618203      3.78169755
N      -4.12752129     -1.57495173      4.25717007
C      -5.02006326     -1.59119667      3.21516644
C      -4.33894647     -1.30150787      2.03804553
C      -4.95701151     -1.21268849      0.72260381
O      -6.11276435     -1.56997883      0.52598148
N      -4.15210341     -0.67362088     -0.25789324
C      -4.47953395     -0.63875048     -1.69781555
C      -3.37650604      0.16932254     -2.40907709
C      -4.49092461     -2.06510358     -2.26814816
C      -5.84540113      0.04454078     -1.97674913
O      -5.88453324      1.35965876     -1.42070256
C      -2.97496861     -1.13296085      2.40299067
N      -1.88373532     -0.86573638      1.63166313
C       0.75420032     -0.80458493      0.21008808
C       0.03870242     -1.39566584     -0.85078283
C       0.61789312     -1.47972585     -2.12293665
O      -0.17378769     -2.06356706     -3.07418247
C       0.05571656     -1.62767184     -4.40419860
F      -1.02011929     -2.00233063     -5.14148699
F       1.12280601     -2.29266412     -4.91051681
C       1.91846236     -1.02390433     -2.33199969
C       2.65835428     -0.45015708     -1.28987654
C       2.04906206     -0.35574227     -0.03065805
H       8.36056619      2.27257690      0.75466129
H       7.64799337      2.29993368      2.35811956
H       7.66270519      3.78441206      1.37891600
H       6.18304220      3.87122855     -0.67871538
H       5.24726641      2.41922283     -1.09801510
H       6.99243774      2.38091972     -1.20286375
H       5.35922042      2.62786537      2.65896132
H       5.08619880      3.93151315      1.51016089
H       3.03740268      2.66337920      1.94878468
H       3.46968654      2.48008250      0.26454871
H       4.51801553      0.21298486      0.80635941
H       4.04841088      0.43161042      2.49385972
H       0.26004655     -0.84649120      4.27393361
H      -4.33641415     -1.74511147      5.23123845
H      -6.06908543     -1.79872124      3.38699599
H      -3.17889940     -0.52274145      0.00131509
H      -3.57182074      0.24979021     -3.48425707
H      -3.29657735      1.18338501     -2.00102459
H      -2.39740596     -0.30428924     -2.28410482
H      -3.53346695     -2.56846547     -2.08662035
H      -5.27294202     -2.67753486     -1.80673213
H      -4.66862729     -2.05881899     -3.34928519
H      -6.01439908      0.13866096     -3.05549722
H      -6.69002663     -0.52071192     -1.57139235
H      -5.72546641      1.24222752     -0.46688733
H      -0.96321194     -1.78208814     -0.68751656
H       0.18922706     -0.54410588     -4.49899578
H       2.40766331     -1.12950979     -3.29719398
H       3.67484694     -0.10708655     -1.45867108
