17
CCCC(=O)OC
C      -2.85405932      0.34458391      0.17282559
C      -1.55136759     -0.43731064      0.21460393
C      -0.34891278      0.46301083     -0.05710239
C       0.95165799     -0.30489370     -0.01782612
O       1.06495657     -1.50217183      0.20181426
O       1.98697919      0.54753737     -0.26654057
C       3.27010714     -0.07933855     -0.25279851
H      -3.70135950     -0.31958527      0.36997582
H      -2.86047504      1.13678889      0.92827236
H      -3.00423088      0.80444491     -0.80916556
H      -1.44704255     -0.91474725      1.19632131
H      -1.58961986     -1.24436481     -0.52688056
H      -0.44570697      0.92053181     -1.04807640
H      -0.30115527      1.25471110      0.69897581
H       4.02307648      0.68568739     -0.46143427
H       3.47655430     -0.50873115      0.73257380
H       3.33059806     -0.84615299     -1.03144697
