32
CCCCCCCC(C(=O)O)C(=O)O
C       4.45647301     -1.82144313     -0.66439135
C       3.14054154     -1.94985358     -1.41379356
C       1.96160321     -1.47342777     -0.56416450
C       0.63931230     -1.61915282     -1.32108714
C      -0.59093313     -1.28685901     -0.47188703
C      -0.64088185      0.17284017     -0.01366510
C      -1.95516952      0.48168910      0.71562447
C      -2.00114937      1.90660038      1.29217287
C      -2.10192886      2.92431377      0.19108614
O      -3.11871237      3.29424350     -0.37496210
O      -0.89947845      3.40509987     -0.19238156
C      -3.12686328      2.11871192      2.27257116
O      -3.21985517      3.06587349      3.04066847
O      -4.08801963      1.17616564      2.25402832
H       4.43714383     -2.39909003      0.26571804
H       5.28082692     -2.19577147     -1.27995334
H       4.66691118     -0.77578011     -0.41498208
H       2.99122406     -2.99741347     -1.70262346
H       3.19540577     -1.36365792     -2.33859504
H       2.12076402     -0.42449984     -0.28755811
H       1.91941766     -2.05454442      0.36526584
H       0.54053559     -2.65306587     -1.67460231
H       0.65163135     -0.98052319     -2.21263390
H      -0.62260681     -1.94924448      0.40108078
H      -1.48527744     -1.50650025     -1.06779760
H      -0.53597101      0.82699033     -0.88627640
H       0.19835763      0.38277827      0.65977411
H      -2.79481978      0.32746644      0.02466296
H      -2.07894464     -0.24368907      1.53029093
H      -1.08218103      2.08426969      1.86649287
H      -1.11110988      4.03836874     -0.91064654
H      -4.74624587      1.48910511      2.91256415
