35
O=C([O-])CN(CCN(CC(=O)[O-])CC(=O)[O-])CC(=O)[O-].[Mn+2].[Na+].[Na+]
O       2.31166977     -3.72635834      1.55517691
C       2.39093532     -2.47925607      1.39385165
O       2.55441132     -1.73552273      2.55529039
C       2.32455279     -1.83312913      0.06537829
N       2.19768915     -0.39472501      0.25040457
C       0.88720383     -0.05351017      0.78446817
C      -0.20133413     -0.27308831     -0.18179840
N      -1.53450418      0.09231260      0.39073065
C      -2.45316397     -0.48988993     -0.59932411
C      -3.79443648     -0.78201118     -0.02800881
O      -4.02750779     -0.88448825      1.22661790
O      -4.92016625     -0.97223923     -0.85233873
C      -1.52328501      1.54570782      0.24494386
C      -2.69229992      2.31367014      0.47036802
O      -3.84220240      1.92891680      0.64166008
O      -2.54980270      3.72461349      0.50832405
C       2.48778002      0.30563326     -0.97792409
C       2.47987030      1.76560720     -0.79203592
O       2.57992752      2.44732414     -1.86471917
O       2.37763740      2.38981429      0.43250413
Mn      0.00000000      0.00000000      0.00000000
Na      0.00000000      0.00000000      0.00000000
Na      0.00000000      0.00000000      0.00000000
H       3.30689003     -1.95666682     -0.48295494
H       1.49855787     -2.26936019     -0.52549619
H       0.72102098     -0.81793507      1.62575888
H       0.88273319      0.92246815      1.24133011
H      -0.24828679     -1.35172385     -0.49538650
H      -0.10730429      0.29912593     -1.12303232
H      -2.52861626      0.16945674     -1.47330790
H      -2.05253000     -1.46794392     -0.97091125
H      -1.10945370      1.75683605     -0.77985780
H      -0.66411833      1.85981838      0.92735507
H       3.47817500     -0.07228720     -1.37559742
H       1.76995771      0.03883043     -1.79146919
