22
Clc1ccc(-c2c(Cl)ccc(Cl)c2Cl)c(Cl)c1Cl
Cl      5.24952539      0.09156873     -0.22777759
C       3.52050172      0.01862258     -0.21884035
C       2.86244183      0.72365024      0.79086974
C       1.47032904      0.71108433      0.86259458
C       0.70734129     -0.00670210     -0.07473903
C      -0.76824421      0.01046397      0.04450333
C      -1.44222390     -0.96511487      0.81097684
Cl     -0.58395193     -2.20916483      1.65773934
C      -2.83545889     -0.96583317      0.92083078
C      -3.58748269      0.00830435      0.26939103
C      -2.95014876      0.98852955     -0.49293916
Cl     -3.95647297      2.16545879     -1.26350623
C      -1.54895752      0.99582778     -0.60840007
Cl     -0.76213359      2.22686955     -1.55690522
C       1.38141005     -0.71896869     -1.09524175
Cl      0.44180020     -1.61172593     -2.26070934
C       2.78816689     -0.70773963     -1.16921483
Cl      3.61673099     -1.58318001     -2.42200599
H       3.43037549      1.28759792      1.52836138
H       0.97966084      1.26907431      1.65957970
H      -3.34143642     -1.72633579      1.51238609
H      -4.67177286     -0.00228705      0.35986410
