22
CC(=O)N(C)c1ccccc1
C      -2.41074880      0.56547128     -0.91558724
C      -2.14735851     -0.57792673      0.03709479
O      -3.08790202     -1.31806435      0.34260520
N      -0.87569691     -0.71299437      0.59539483
C      -0.75694140     -1.57248668      1.77039891
C       0.31807002     -0.08870920      0.11817476
C       1.31518323      0.31977126      1.01733793
C       2.49727471      0.91235713      0.56224385
C       2.70921988      1.08849711     -0.80149389
C       1.74403960      0.66352994     -1.70922490
C       0.56096518      0.07361212     -1.25213372
H      -3.44215056      0.90510473     -0.77147719
H      -1.76841260      1.42582548     -0.71606896
H      -2.30378408      0.22650786     -1.94816384
H       0.19175226     -2.11895205      1.75135705
H      -1.56267400     -2.31129980      1.81224011
H      -0.81866961     -0.95117900      2.66943776
H       1.17853065      0.21483281      2.09014592
H       3.25061056      1.23691401      1.27569950
H       3.62916344      1.54567538     -1.15667836
H       1.91583186      0.77585062     -2.77691932
H      -0.13630290     -0.30233753     -1.99438320
