33
CCC(C)(O)CCCC(C)C
C      -3.12587954      1.23923701     -0.54496723
C      -2.76151531     -0.22558021     -0.76073280
C      -2.14240200     -0.91903842      0.47030014
C      -1.86306994     -2.39070040      0.13840476
O      -3.13217259     -0.90467744      1.50977488
C      -0.88358629     -0.21713178      1.02615920
C       0.27542997     -0.06643985      0.03513662
C       1.47292584      0.62958101      0.69296536
C       2.62481390      0.92490471     -0.28568971
C       3.24162711     -0.34907911     -0.86483009
C       3.70626733      1.74724024      0.41959057
H      -3.63049707      1.63207405     -1.43380431
H      -2.23720935      1.85338160     -0.37358052
H      -3.80292677      1.36228691      0.30576712
H      -3.68647892     -0.75028363     -1.03474185
H      -2.08983433     -0.30286322     -1.62359634
H      -2.79419302     -2.91716036     -0.10199831
H      -1.18115583     -2.49994344     -0.71017922
H      -1.43072418     -2.91101168      1.00068092
H      -2.76596042     -1.37204075      2.28000152
H      -0.53052874     -0.77190217      1.90674367
H      -1.16219343      0.76939956      1.41923719
H      -0.04469988      0.51900186     -0.83323214
H       0.57806644     -1.05407469     -0.32537995
H       1.13148589      1.57649718      1.13090667
H       1.84045967      0.01375666      1.52379618
H       2.23498237      1.52609700     -1.11686488
H       3.58497493     -1.02056285     -0.07064683
H       4.10157818     -0.10996011     -1.49992008
H       2.52375681     -0.89310880     -1.48589310
H       4.13922450      1.19606962      1.26139323
H       3.29303331      2.68547811      0.80472888
H       4.51640139      2.00055338     -0.27250391
