18
O=Cc1ccc(B(O)O)cc1
O      -3.91039360      0.48624417      0.73860142
C      -3.22295373     -0.30351086      0.04617676
C      -1.78984885     -0.17756540     -0.12236940
C      -1.08559875      0.83516105      0.47875669
C       0.27179972      0.91787706      0.29282076
C       0.97034869      0.00944176     -0.48692650
B       2.50653033      0.20204667     -0.62614556
O       3.39406677     -0.95075311     -0.89168695
O       3.05320769      1.53542879     -0.95849961
C       0.24928707     -0.99283527     -1.07749591
C      -1.10857232     -1.08608546     -0.89905738
H      -3.75688082     -1.10710870     -0.43533802
H      -1.61515662      1.54419871      1.08452892
H       0.81980193      1.71834954      0.76950876
H       3.79956674     -1.21000490     -0.02894972
H       2.30621197      2.18566401     -0.98591753
H       0.78187245     -1.71383807     -1.69241403
H      -1.66328867     -1.89270999     -1.37897763
