29
CC(=O)Oc1ccccc1C(=O)OCS(C)=O
C      -0.17854903      1.76752514     -2.34286307
C      -0.66463903      0.52546597     -1.65960978
O      -0.51367171     -0.60894217     -2.09488784
O      -1.35288099      0.87759578     -0.50198395
C      -1.95941256     -0.20656719      0.14395018
C      -3.35545988     -0.26094782      0.04458177
C      -4.05705745     -1.30403330      0.64646543
C      -3.36728724     -2.29171584      1.34627557
C      -1.97580833     -2.22594059      1.46216691
C      -1.25478419     -1.17262215      0.87615635
C       0.21573325     -1.17633318      1.07937116
O       0.85170646     -2.17315384      1.38891003
O       0.73483341      0.06589298      0.95386694
C       2.15267142      0.09371943      1.11117566
S       2.72055603      1.81483499      0.92245430
C       4.47121082      1.44493424      1.18768413
O       2.55578383      2.20993811     -0.51583457
H      -0.98750101      2.19230084     -2.94220154
H       0.15958663      2.49997724     -1.60536953
H       0.66858003      1.51846585     -2.98967860
H      -3.89469577      0.50346865     -0.50878802
H      -5.14006030     -1.35285963      0.55989594
H      -3.91098868     -3.11655276      1.80159553
H      -1.45467083     -3.00403969      2.01755206
H       2.43120756     -0.24389551      2.11478506
H       2.63452035     -0.51377747      0.33890343
H       4.81286933      0.70102125      0.46333423
H       4.61282288      1.07058722      2.20457853
H       5.04538503      2.36565344      1.06063642
