23
O=C(O)C=CC(=O)Nc1ccccc1
O       4.99276469      0.60390422      1.26034130
C       4.31448247      0.86732916      0.28787820
O       4.77707500      1.59499459     -0.73946836
C       2.92098386      0.48665495      0.04224589
C       2.28302171     -0.26448875      0.94960698
C       0.89218099     -0.74057060      0.75197666
O       0.62405169     -1.89350084      1.06217687
N       0.03574006      0.22982728      0.28090034
C      -1.33379467      0.08431619     -0.02645839
C      -2.02384146      1.23397072     -0.43460173
C      -3.38111573      1.17351687     -0.76200399
C      -4.06153943     -0.03831352     -0.68620676
C      -3.38386520     -1.18666930     -0.28436600
C      -2.02526243     -1.12632056      0.04335998
H       5.70523276      1.79255882     -0.49194738
H       2.47190479      0.81130666     -0.88757700
H       2.77586032     -0.64677437      1.83871091
H       0.40424455      1.16654429      0.18848698
H      -1.51839675      2.19349991     -0.50226876
H      -3.90608585      2.07215571     -1.07528253
H      -5.11720991     -0.08983217     -0.93935515
H      -3.90948999     -2.13648952     -0.22389379
H      -1.53694149     -2.04682084      0.34774575
