35
CCCCOC(=O)Oc1ccc(NC(C)=O)cc1
C      -6.83100236      0.07911573     -0.45731591
C      -5.39572141     -0.28299461     -0.10900711
C      -4.86436039      0.57953047      1.03813406
C      -3.43557370      0.20734053      1.42608537
O      -2.56473020      0.47611798      0.32235806
C      -1.26057867      0.16628836      0.55413211
O      -0.82341800     -0.30687341      1.59387941
O      -0.54264005      0.47872874     -0.58787238
C       0.82442569      0.21627416     -0.48686970
C       1.69926380      1.29502646     -0.41079696
C       3.07704606      1.06227178     -0.35624088
C       3.57848404     -0.24228258     -0.39120609
N       4.95133406     -0.56037830     -0.33535687
C       6.01767929      0.31734351     -0.25869521
C       7.34388080     -0.40042902     -0.21044661
O       5.96904304      1.54197210     -0.25476074
C       2.67861538     -1.31513259     -0.48824909
C       1.30111548     -1.08978337     -0.54583463
H      -7.49303164     -0.07073447      0.40151415
H      -7.19185360     -0.54899237     -1.27780100
H      -6.90641069      1.12502631     -0.77149853
H      -5.35028534     -1.34189645      0.17084891
H      -4.77026042     -0.15579042     -0.99991203
H      -5.51332177      0.46862267      1.91455298
H      -4.89368738      1.63269104      0.73308477
H      -3.12665834      0.81361191      2.28564372
H      -3.38225328     -0.85457890      1.69397106
H       1.32154485      2.31311884     -0.39146661
H       3.73285992      1.92451502     -0.28693172
H       5.17645788     -1.54670214     -0.35990137
H       7.27283371     -1.31486129      0.38557404
H       8.09144136      0.24894231      0.25430718
H       7.65900972     -0.64745891     -1.22756998
H       3.03612222     -2.34085311     -0.52244532
H       0.61462994     -1.92679596     -0.62849815
