26
O=C1c2ccccc2C(=O)c2c(O)ccc(O)c21
O       0.00375549      2.66270624     -0.17942813
C      -0.06739255      1.43981548     -0.09572211
C      -1.37680869      0.76608641     -0.02581442
C      -2.55304665      1.52559644     -0.05494211
C      -3.79450140      0.89084096      0.01106758
C      -3.86416950     -0.49889929      0.10598962
C      -2.69254931     -1.25714897      0.13512091
C      -1.44637555     -0.62160761      0.06896382
C      -0.21103838     -1.42556365      0.09997471
O      -0.26254981     -2.64945921      0.18338286
C       1.10218443     -0.75400051      0.03014036
C       2.28710046     -1.50493067      0.05852846
O       2.30611004     -2.87074955      0.15017094
C       3.52837243     -0.87650798     -0.00705314
C       3.59797252      0.51180505     -0.10186977
C       2.42590232      1.26373807     -0.13056481
O       2.58141252      2.62062505     -0.22488093
C       1.17194981      0.63762373     -0.06490394
H      -2.50839465      2.61091109     -0.12887823
H      -4.70822462      1.48119457     -0.01158035
H      -4.83225543     -0.99294877      0.15739899
H      -2.75666718     -2.34146748      0.20936037
H       1.37641640     -3.19191910      0.18923087
H       4.44001889     -1.46870464      0.01576313
H       4.56417979      1.00789641     -0.15338240
H       1.68859861      3.03506793     -0.23607228
