41
Cc1cccc(C)c1N(COCC(C)C)C(=O)CCl
C      -3.45269781      0.72366596      1.51332313
C      -3.05253555     -0.32436421      0.50922228
C      -4.02301791     -1.23979357      0.07634958
C      -3.69931397     -2.24003778     -0.83646839
C      -2.40327537     -2.33475152     -1.33699244
C      -1.41392734     -1.41893168     -0.94881480
C      -0.03032968     -1.58054815     -1.51558496
C      -1.74314374     -0.41071753     -0.02077368
N      -0.74941610      0.51823852      0.38765224
C       0.07072857      0.12434646      1.52650592
O       1.33236933     -0.38006031      1.08829533
C       2.26050838      0.65279402      0.75589731
C       3.64991150      0.03951188      0.53559696
C       3.64806722     -0.96063854     -0.62164214
C       4.68055858      1.13864075      0.28433356
C      -0.79661672      1.86330308      0.03059430
O      -0.17788601      2.73046943      0.65760270
C      -1.58652415      2.24675334     -1.21259830
Cl     -0.46173269      2.35561617     -2.58447875
H      -4.39660875      0.46269544      2.00435720
H      -3.58594525      1.69062132      1.01910549
H      -2.70271469      0.81739096      2.30496530
H      -5.04050496     -1.18822779      0.45923615
H      -4.45675254     -2.95230051     -1.15445828
H      -2.16667571     -3.12996505     -2.04163686
H       0.45883512     -0.61490244     -1.67113006
H       0.57580220     -2.19445006     -0.84329556
H      -0.06361605     -2.07267778     -2.49403407
H      -0.42688806     -0.68526989      2.07285958
H       0.20497043      0.94990722      2.23502914
H       1.93018214      1.16417489     -0.15455967
H       2.31008457      1.38039186      1.57463271
H       3.93571970     -0.50897320      1.44226245
H       2.98455073     -1.80499830     -0.41091248
H       3.31635379     -0.48984694     -1.55339970
H       4.65222623     -1.36622707     -0.78603526
H       4.71908821      1.83574262      1.12797918
H       4.43923318      1.71102057     -0.61780316
H       5.68149898      0.71286201      0.15806579
H      -2.38041965      1.54961508     -1.47612170
H      -2.04014614      3.22992072     -1.05424963
