50
CCCCC(=O)OCSc1ncnc2c1ncn2COC(=O)CCCC
C      -9.51911376     -0.83198735      0.64449787
C      -8.48284261     -0.40390163     -0.38228745
C      -7.09685281     -0.26471122      0.24567279
C      -6.05766009      0.16322079     -0.78909473
C      -4.68249844      0.30944537     -0.18099260
O      -4.39562119      0.09818457      0.98829321
O      -3.80656280      0.71591236     -1.13869950
C      -2.46617561      0.87314433     -0.65948480
S      -1.41863905      1.56451221     -1.97802339
C      -0.01585542      2.04265876     -1.01954807
N       0.45530405      3.30884196     -1.14773552
C       1.53986606      3.65678975     -0.42812636
N       2.24548935      2.89645068      0.43095934
C       1.74067892      1.65435171      0.50884078
C       0.63689491      1.14965197     -0.16385070
N       0.42127209     -0.16840216      0.18686243
C       1.37790914     -0.45746363      1.04431395
N       2.20078930      0.61317039      1.26458591
C       3.34020382      0.64237347      2.15229510
O       4.50816638      0.26549544      1.41662251
C       4.82067630     -1.05481720      1.46516370
O       4.19637866     -1.90154416      2.08825744
C       6.02891497     -1.34338117      0.61363508
C       5.63337562     -1.43467252     -0.85628416
C       6.78311723     -1.86893020     -1.76581773
C       7.91510606     -0.85557832     -1.83360599
H      -9.59615346     -0.09792956      1.45299736
H      -9.25984067     -1.80090079      1.08282059
H     -10.50322522     -0.92414820      0.17433802
H      -8.78868410      0.55112948     -0.82500343
H      -8.45246490     -1.14188352     -1.19226792
H      -7.13180507      0.47051334      1.05934111
H      -6.79753332     -1.21916254      0.69681931
H      -5.99981156     -0.58456996     -1.58788226
H      -6.34385531      1.12806554     -1.22250635
H      -2.08332623     -0.10857762     -0.36637792
H      -2.46172779      1.55853602      0.19561699
H       1.88677875      4.67834727     -0.55738033
H       1.52295073     -1.41740786      1.52715765
H       3.14244427      0.00331625      3.02034728
H       3.47649851      1.66579484      2.51583565
H       6.46847532     -2.28611211      0.95914469
H       6.77605990     -0.56248350      0.79149644
H       5.23673216     -0.47006239     -1.19704097
H       4.81314005     -2.15598462     -0.96425409
H       7.17793203     -2.83583748     -1.43327680
H       6.38857833     -2.01879905     -2.77777932
H       7.54420012      0.12753616     -2.13937971
H       8.41852908     -0.75100026     -0.86828920
H       8.66378731     -1.17719366     -2.56464514
