29
O=C(O)c1ccc(P(=O)(O)c2ccccc2)cc1
O      -5.25330701      1.49109700      0.14104434
C      -4.43151869      1.38638436     -0.75064051
O      -4.62056685      1.97220275     -1.94621729
C      -3.15369063      0.63828887     -0.67074256
C      -2.26099973      0.57361445     -1.74618057
C      -1.06783700     -0.14419925     -1.62260256
C      -0.74736185     -0.80511717     -0.42718816
P       0.78668091     -1.69453947     -0.30346051
O       1.17720117     -2.48205541     -1.52692101
O       0.55924414     -2.76442592      0.89705805
C       2.05613087     -0.62600321      0.33340826
C       3.13983627     -0.26221761     -0.47850992
C       4.14098257      0.57962952      0.00737210
C       4.06947678      1.06645797      1.31109777
C       2.99941076      0.71120918      2.13014105
C       1.99846069     -0.13119529      1.64432868
C      -1.65079518     -0.73866352      0.64274873
C      -2.84471759     -0.02189534      0.52403240
H      -5.48872254      2.41772486     -1.85401798
H      -2.48454908      1.07427846     -2.68532884
H      -0.38303902     -0.19664959     -2.46808725
H       1.27773862     -3.42621059      0.90666496
H       3.20429165     -0.64183049     -1.49733569
H       4.97690084      0.85489592     -0.63104066
H       4.84924657      1.72274156      1.68946705
H       2.94500911      1.09070161      3.14755501
H       1.16875774     -0.40491531      2.29288479
H      -1.42818591     -1.25503963      1.57478287
H      -3.53407761      0.01573128      1.36568745
