13
CC1=CCC(=O)O1
C       2.01902429      0.25202388     -0.30579519
C       0.55123914      0.15135643     -0.09403295
C      -0.16491964     -0.94090797      0.14253628
C      -1.58368665     -0.55751469      0.28582381
C      -1.47486125      0.93583318      0.08032291
O      -2.42516387      1.70782696      0.11048861
O      -0.17814385      1.33642997     -0.14656842
H       2.46892279      0.89889603      0.45372870
H       2.50270395     -0.72824948     -0.24612307
H       2.23235847      0.67590618     -1.29197018
H       0.21654141     -1.94800529      0.21948526
H      -2.20266378     -1.00552996     -0.49432109
H      -1.96135100     -0.77806523      1.28642531
