48
C=CCC1=C(C)C(OC(=O)C2C(C=C(C)C)C2(C)C)CC1=O
C      -6.14471496      1.28432653      2.06077425
C      -5.65225804      0.43472298      1.14968457
C      -4.36212070     -0.32097174      1.29840009
C      -3.35426666      0.10372751      0.29094987
C      -2.31595984      0.95002576      0.35912550
C      -1.91045877      1.77327555      1.53620927
C      -1.51644645      1.05173440     -0.91264170
O      -0.20342617      0.55119120     -0.63845282
C       0.71770385      0.83026722     -1.59711327
O       0.51036776      1.45758723     -2.62489411
C       2.06006346      0.30157658     -1.26391654
C       2.25120568     -0.98998857     -0.49594344
C       3.31516386     -1.08003052      0.51515381
C       3.35942971     -0.48098268      1.72116000
C       4.52939400     -0.67923277      2.64662495
C       2.27784941      0.41327163      2.25793247
C       2.60290825     -0.92988208     -1.97630818
C       4.03903186     -0.86525361     -2.43956026
C       1.71062713     -1.70241853     -2.91940431
C      -2.25084993      0.16575760     -1.91467387
C      -3.32763772     -0.44960767     -1.07574390
O      -4.11449856     -1.29681038     -1.47311094
H      -5.62351909      1.49366887      2.98953904
H      -7.09058556      1.79014842      1.89113672
H      -6.21858999      0.25165114      0.23721026
H      -4.56590013     -1.39374317      1.19634342
H      -3.95953873     -0.19663481      2.31076646
H      -1.87064957      2.83199499      1.26046078
H      -2.60973090      1.67875444      2.37178804
H      -0.92127289      1.47162553      1.89307511
H      -1.47343343      2.09523519     -1.24950719
H       2.76833587      1.10103721     -1.06595207
H       1.36084592     -1.55151723     -0.22322671
H       4.14707940     -1.73143004      0.24720477
H       5.00161249      0.28278287      2.87104631
H       5.29503029     -1.33233975      2.21489435
H       4.19724238     -1.13200764      3.58653682
H       2.66431655      1.42692774      2.40515125
H       1.41257990      0.47905352      1.59479845
H       1.91924395      0.03591818      3.22137586
H       4.48288471     -1.86623265     -2.44080925
H       4.65699872     -0.22013483     -1.80624963
H       4.08958580     -0.46725874     -3.45872051
H       1.65742943     -1.19972242     -3.89068863
H       2.10911896     -2.71045049     -3.07557118
H       0.69033512     -1.80824917     -2.53646205
H      -2.72064587      0.76377886     -2.70151770
H      -1.61988051     -0.61514169     -2.34687417
