41
CCCN(CCC)c1c([N+](=O)[O-])cc(S(N)(=O)=O)cc1[N+](=O)[O-]
C      -2.63494602      3.07854103      1.11320390
C      -2.20065919      1.63261333      0.93213188
C      -1.39515219      1.44865459     -0.35530297
N      -1.02569992      0.02279874     -0.52865625
C      -1.73441761     -0.70881254     -1.60599859
C      -3.19841477     -0.98890336     -1.25818930
C      -3.36590349     -1.93361313     -0.07841142
C       0.36357834     -0.22152212     -0.49064604
C       1.29759874      0.17768961     -1.47181078
N       0.87330008      0.87952860     -2.66338280
O       0.79857304      2.11272803     -2.59380206
O       0.66304352      0.19213051     -3.67055431
C       2.67855753     -0.07508142     -1.37673422
C       3.16819604     -0.74851493     -0.25880391
S       4.89864601     -1.09658109     -0.13048940
N       5.45376503      0.26810468      0.66678699
O       5.08203857     -2.20292976      0.77597038
O       5.47369034     -1.06041789     -1.45256724
C       2.29769146     -1.19149609      0.73360715
C       0.92533443     -0.92108019      0.59900632
N       0.07030269     -1.42043635      1.65493253
O      -0.41420409     -2.54875101      1.49550591
O      -0.03322360     -0.71659479      2.66883545
H      -1.76840470      3.74503923      1.16622269
H      -3.20665535      3.18953803      2.04013091
H      -3.26891113      3.40411489      0.28239803
H      -1.59736361      1.33172049      1.79507780
H      -3.08773094      0.99206705      0.93040503
H      -1.97760156      1.80030890     -1.21595162
H      -0.50772284      2.09093356     -0.29295480
H      -1.23792355     -1.66744151     -1.80751243
H      -1.70918882     -0.12888247     -2.53548734
H      -3.73669372     -0.05592638     -1.06020206
H      -3.67830933     -1.44360786     -2.13345370
H      -4.42643052     -2.15572723      0.07757836
H      -2.84560169     -2.88001635     -0.25722235
H      -2.97938701     -1.49388358      0.84518557
H       3.35533903      0.25093816     -2.16631285
H       6.11874869      0.77295187      0.07798832
H       5.84221803      0.00971812      1.57594832
H       2.66992408     -1.73989937      1.59818214
