60
CC(C)Oc1ccc(S(C)(=O)=O)cc1C(=O)N1Cc2ccc(C3CCOCC3)cc2C1
C      -3.05037462      3.61508291      0.89585618
C      -3.77677971      2.87276804     -0.22104854
C      -3.81068736      3.71481993     -1.49154351
O      -3.04420002      1.67173657     -0.52178254
C      -3.67582271      0.53852112     -0.08752969
C      -4.83956140      0.10478669     -0.73039726
C      -5.47886072     -1.06178042     -0.30659199
C      -4.93855405     -1.79973787      0.75140054
S      -5.76822901     -3.26798094      1.31592668
C      -4.90696203     -4.57058436      0.47452982
O      -5.50724081     -3.39467255      2.73571205
O      -7.12500390     -3.22477323      0.80601733
C      -3.77056880     -1.38191997      1.39446303
C      -3.12299375     -0.22530295      0.94639269
C      -1.88840226      0.18292240      1.64366425
O      -1.97685677      0.52145448      2.82070175
N      -0.69441626      0.10365657      0.96334743
C      -0.48207138     -0.38740318     -0.39984971
C       1.00465919     -0.36420719     -0.55097161
C       1.76961614     -0.73372606     -1.64163663
C       3.15918699     -0.61103478     -1.54742623
C       3.77894241     -0.12549890     -0.37305894
C       5.28915477      0.01202081     -0.27583584
C       6.01632226     -1.32723978     -0.47063943
C       7.52459053     -1.11920412     -0.42280826
O       7.93285661     -0.15753139     -1.39597816
C       7.35533367      1.12690319     -1.16357580
C       5.83643665      1.05911740     -1.25660774
C       2.97774503      0.24626873      0.72032130
C       1.60141615      0.12234333      0.61609658
C       0.55523679      0.45225373      1.63219677
H      -3.52178121      4.58070615      1.10386489
H      -3.05939311      3.02415117      1.81743808
H      -1.99852793      3.78279897      0.63825715
H      -4.80864907      2.66898038      0.09567996
H      -4.31668680      3.17074560     -2.29600602
H      -4.33483530      4.66146414     -1.32808336
H      -2.79678193      3.93064048     -1.84733771
H      -5.25344348      0.67625029     -1.55757446
H      -6.39724401     -1.37850709     -0.79802796
H      -5.01703597     -4.43224056     -0.60270236
H      -3.85447347     -4.54790382      0.76250246
H      -5.35291778     -5.52184681      0.77460111
H      -3.36677382     -1.93564233      2.23966421
H      -0.95594407      0.28851348     -1.11498461
H      -0.88743421     -1.39955139     -0.48928421
H       1.31058649     -1.10493985     -2.55249969
H       3.76412847     -0.89568070     -2.40663927
H       5.53239733      0.36151276      0.73824691
H       5.70987828     -2.04970260      0.29560960
H       5.75703130     -1.75861667     -1.44582664
H       8.03675004     -2.06004170     -0.64894291
H       7.85252382     -0.79511223      0.57215696
H       7.68023241      1.50254455     -0.18625891
H       7.74481928      1.81049520     -1.92505163
H       5.40265076      2.04493534     -1.05330975
H       5.56103714      0.78893107     -2.28331691
H       3.42052226      0.62747288      1.63638290
H       0.66232821     -0.15118491      2.53898946
H       0.54312470      1.51877003      1.87765854
