32
C=CCC1(CCCC)C(=O)NC(=O)NC1=O
C      -3.18161551      2.47077252     -0.48186098
C      -2.02415165      2.18394304      0.12720320
C      -1.77052401      0.91524389      0.89792391
C      -0.69372745     -0.03761480      0.29671051
C       0.68902092      0.66171842      0.23499019
C       1.84177427     -0.23782213     -0.24395551
C       3.15902313      0.53952238     -0.29431350
C       4.30708860     -0.33929685     -0.76487827
C      -0.65604757     -1.23094924      1.24119574
O       0.09572571     -1.31422294      2.20955792
N      -1.58051909     -2.21276266      1.00589275
C      -2.18692401     -2.43693945     -0.19131885
O      -2.68952247     -3.52286941     -0.46005886
N      -2.13326626     -1.43323370     -1.10602499
C      -1.16016987     -0.47253604     -1.08635915
O      -0.73617746     -0.00472132     -2.13996306
H      -3.30628061      3.40735505     -1.01845293
H      -4.02768854      1.79099956     -0.46677620
H      -1.21818191      2.91474633      0.08276368
H      -1.47033434      1.20375335      1.91505594
H      -2.72082749      0.37719120      1.02359538
H       0.94399326      1.05369757      1.22870650
H       0.63874846      1.52791086     -0.43672043
H       1.62386808     -0.63806064     -1.24002024
H       1.96068601     -1.09620815      0.42576340
H       3.06091478      1.39538023     -0.97220662
H       3.39491583      0.93715697      0.69961556
H       4.11690424     -0.72803452     -1.77038243
H       5.23770242      0.23605681     -0.79348975
H       4.45330953     -1.18852658     -0.08978430
H      -1.53646898     -3.01214586      1.62405305
H      -2.43124802     -1.70950390     -2.03272385
