53
CCCCCCCCCCCCCCCCC(=O)O
C       7.50535514      2.06975703     -2.27879595
C       7.40745322      0.70956813     -1.60647340
C       6.16801614      0.61259734     -0.71574611
C       6.07401208     -0.75991999     -0.04561913
C       4.91415371     -0.87464910      0.94773611
C       3.53644012     -0.78863464      0.28727248
C       2.41849622     -1.02439669      1.30573889
C       1.03887786     -0.93544453      0.64873134
C      -0.07652006     -1.16797491      1.67038852
C      -1.47661580     -1.21072929      1.04873233
C      -1.92889171      0.13659115      0.47907055
C      -3.32941185      0.09563818     -0.14401239
C      -4.44774999     -0.09493922      0.88429050
C      -5.84653896     -0.13551012      0.25854955
C      -6.28176079      1.20217906     -0.34889086
C      -7.73563361      1.18206993     -0.81419111
C      -7.95055432      0.27168640     -1.98990105
O      -8.57764841     -0.77409253     -1.98636426
O      -7.37250832      0.72455825     -3.11776709
H       8.39838979      2.11724939     -2.90977976
H       6.63208291      2.25857379     -2.91131397
H       7.57139319      2.87080601     -1.53563549
H       7.37477715     -0.07059346     -2.37589775
H       8.31044401      0.53875315     -1.00887420
H       6.20560181      1.39511133      0.05168242
H       5.27544789      0.79604575     -1.32417896
H       7.00739585     -0.95820484      0.49590576
H       5.98153137     -1.54038937     -0.81068284
H       5.00738695     -0.09506089      1.71359886
H       5.00301304     -1.83776292      1.46568644
H       3.46543943     -1.53366179     -0.51428692
H       3.40024668      0.19715589     -0.17109335
H       2.49111277     -0.28145042      2.10936541
H       2.54319469     -2.01226842      1.76565969
H       0.92682999      0.05151417      0.18672715
H       0.96554863     -1.68082871     -0.15227075
H       0.09929071     -2.12497143      2.17752676
H      -0.04042794     -0.39047698      2.44316240
H      -1.50678982     -1.97517912      0.26303871
H      -2.17400016     -1.53187378      1.83015962
H      -1.23035897      0.45400751     -0.30322167
H      -1.89672036      0.90256715      1.26316716
H      -3.37488091     -0.70105715     -0.89620547
H      -3.48072233      1.04207702     -0.67510092
H      -4.29868851     -1.03967557      1.41849133
H      -4.40313279      0.70384183      1.63431023
H      -5.88124963     -0.92459716     -0.50193828
H      -6.56057544     -0.41968981      1.04165072
H      -6.16885380      1.99225145      0.40318962
H      -5.63075130      1.46312441     -1.19028272
H      -8.39891218      0.86311291     -0.00211031
H      -8.05783589      2.18891255     -1.10397976
H      -7.59419751      0.04428308     -3.78770497
