22
CC(=O)Nc1ccc(Cl)cc1C
C       3.56568855     -0.22233003     -0.17863468
C       2.21289966     -0.88183281     -0.28833212
O       2.11749328     -2.06456906     -0.59358624
N       1.18124877      0.00574565     -0.03541082
C      -0.21033137     -0.25019149     -0.04733375
C      -0.73750050     -1.51931041     -0.32017637
C      -2.11815584     -1.74264713     -0.32388025
C      -2.98779875     -0.69559277     -0.05330275
Cl     -4.68624209     -0.96635566     -0.05677598
C      -2.48803216      0.57437518      0.22156662
C      -1.10036745      0.81342314      0.22857603
C      -0.62320014      2.20877542      0.53309595
H       3.77173961      0.33843102     -1.09409796
H       4.33458418     -0.98836607     -0.04260470
H       3.60044857      0.45048873      0.68313464
H       1.45937394      0.95411974      0.17530210
H      -0.09809940     -2.36973945     -0.53623057
H      -2.49850971     -2.73763667     -0.53917325
H      -3.18374405      1.38388636      0.43182751
H       0.00347179      2.20840312      1.43075924
H      -1.45927701      2.89168071      0.71839523
H      -0.05568989      2.60924247     -0.31311788
