34
CNC(=O)CCSCCSP(=O)(OC)OC
C       6.53570037      0.63724396     -0.18662090
N       5.20985935      0.28877130     -0.63246066
C       4.21877004     -0.02556623      0.27470582
O       4.36211584      0.05875643      1.48868376
C       2.92615575     -0.45294094     -0.38929822
C       1.91012759     -0.92119135      0.64363680
S       0.36284967     -1.50791709     -0.13337400
C      -0.36277061      0.06416182     -0.72871522
C      -0.68738924      1.11330701      0.33731824
S      -1.85576755      0.57774791      1.62195091
P      -3.56371574      0.05586412      0.55188285
O      -3.79458487      1.02025569     -0.57790267
O      -3.43534441     -1.46818786      0.03417187
C      -4.43913418     -1.93799116     -0.84078746
O      -4.83963187     -0.04747291      1.54002198
C      -5.38987591      1.16666220      2.00785228
H       7.06127111      1.12774607     -1.00907654
H       6.48306062      1.30746716      0.67555677
H       7.06160631     -0.27863663      0.09559983
H       5.08933441      0.01136570     -1.59819368
H       2.54869166      0.40781866     -0.95161500
H       3.15249056     -1.26119011     -1.09508725
H       2.32277591     -1.76780845      1.20440249
H       1.68936414     -0.14376778      1.38073836
H       0.31926545      0.49741017     -1.46734180
H      -1.27036769     -0.19556623     -1.28361858
H      -1.12235073      1.99018208     -0.15468230
H       0.22544325      1.46194581      0.82924421
H      -4.40286187     -1.38665986     -1.78408063
H      -5.42681862     -1.83075881     -0.38467914
H      -4.25857472     -2.99635288     -1.04496551
H      -4.63306740      1.75448030      2.53335116
H      -5.79451920      1.74289628      1.17159466
H      -6.20210743      0.93792560      2.70244008
