22
C=CC(=O)OCCCCO
C       4.88074091      0.22000379      0.52214201
C       3.57865646      0.37868318      0.79090997
C       2.54570697     -0.18006132     -0.10693155
O       2.76400143     -0.80564491     -1.13078082
O       1.33168923      0.12621209      0.41339716
C       0.22732320     -0.34884989     -0.36756998
C      -1.06154844      0.04469255      0.34518146
C      -2.29500704     -0.44055457     -0.41701746
C      -3.59146865     -0.06955458      0.29159165
O      -3.72378780      1.34328147      0.34221882
H       5.21762739     -0.32089928     -0.35848698
H       5.63822090      0.63098773      1.18074965
H       3.24158040      0.91823659      1.66741462
H       0.26207142      0.10724094     -1.36395985
H       0.28755473     -1.43967460     -0.46072437
H      -1.08555073      1.13454382      0.46728078
H      -1.05640935     -0.37098083      1.36060270
H      -2.25047184     -1.52916715     -0.53665019
H      -2.29029730      0.00525577     -1.41912036
H      -3.60741680     -0.46325220      1.31290629
H      -4.44749409     -0.47649806     -0.25581046
H      -4.56572101      1.53599947      0.78939566
