45
NC1[C@@H]2CN(c3nc4c(cc3F)c(=O)c(C(=O)O)cn4-c3ccc(F)cc3F)C[C@H]12
N       5.50024861     -2.94205425      0.98147576
C       4.42823888     -1.95033477      0.90624464
C       4.49079474     -0.86402856     -0.13562090
C       3.74543576      0.42648739      0.03980964
N       2.34989618      0.01872364      0.17519352
C       1.29330506      0.89989639      0.14611388
N       0.05165054      0.37309789     -0.01423942
C      -1.04718646      1.17141028     -0.05524846
C      -0.92537094      2.55178345      0.11376595
C       0.33361559      3.11714897      0.28982909
C       1.44183604      2.28276414      0.30347141
F       2.64713391      2.84581170      0.48012870
C      -2.12645265      3.40638568      0.13056295
O      -2.04429148      4.62591441      0.25818126
C      -3.44728644      2.76356713      0.00011566
C      -4.72681164      3.50129342      0.02888469
O      -5.81544221      2.95312903     -0.06287436
O      -4.60206658      4.83762366      0.16983199
C      -3.46076129      1.43276939     -0.16624966
N      -2.35145648      0.59510558     -0.22793403
C      -2.52986349     -0.80226584     -0.48023855
C      -3.39508599     -1.57035662      0.32135377
C      -3.56002357     -2.93764891      0.08274493
C      -2.86825233     -3.54371561     -0.96036012
F      -3.03216420     -4.85356427     -1.18486034
C      -2.01862385     -2.81235659     -1.77590441
C      -1.85702808     -1.45183360     -1.53382504
F      -1.07741456     -0.75153067     -2.37306620
C       2.11940431     -1.38008364     -0.19047222
C       3.49709767     -1.96647971     -0.27652755
H       5.90765789     -3.12864079      0.06628274
H       6.26378203     -2.60421032      1.56690374
H       3.98907958     -1.69648321      1.86965102
H       5.32928973     -0.80353116     -0.81144890
H       4.10030748      0.95185661      0.93229948
H       3.88824116      1.05608706     -0.84560383
H       0.46545136      4.18617677      0.42384541
H      -3.66954802      5.15866056      0.23534044
H      -4.41044301      0.91451545     -0.29949031
H      -3.92602399     -1.11362801      1.15350409
H      -4.21929849     -3.53350853      0.70711537
H      -1.49555468     -3.28946970     -2.59588251
H       1.62914716     -1.45861618     -1.16794307
H       1.52150336     -1.90088508      0.56510144
H       3.61333339     -2.71498258     -1.04445235
