9
O=C[O-].O=C[O-].[Ca+2]
O      -1.04160161     -0.72480211     -0.05273464
C       0.00365583     -0.02398193      0.00341919
O       1.20476995     -0.34556847      0.20534065
O      -1.06806177     -0.68718947      0.00822405
C       0.00309491     -0.02430229     -0.00009465
O       1.20619569     -0.39747954     -0.01244851
Ca      0.00000000      0.00000000      0.00000000
H      -0.16682417      1.09435250     -0.15602520
H      -0.14122883      1.10897130      0.00431911
