43
CN1[C@H]2CC(OC(=O)[C@H](CO)c3ccccc3)C[C@@H]1[C@H]1O[C@@H]21
C      -5.25027605     -0.57758511     -0.90440757
N      -3.82449603     -0.37091052     -0.67964718
C      -3.52609335      0.41799704      0.53857035
C      -2.09162475     -0.00894441      0.90446065
C      -1.09458782      0.26236772     -0.24888112
O       0.09384103     -0.53621790     -0.08670930
C       1.00492053     -0.07941609      0.82242758
O       0.88827102      0.95677468      1.46606496
C       2.19440096     -1.02542312      0.89206513
C       2.47387183     -1.38218792      2.35763462
O       1.58217532     -2.40404438      2.80854981
C       3.40966899     -0.43277129      0.19797996
C       4.05514015      0.70974580      0.69718776
C       5.16980192      1.23871590      0.04443362
C       5.65201156      0.63581124     -1.11480574
C       5.01806777     -0.49455749     -1.62520439
C       3.90256726     -1.02552092     -0.97496986
C      -1.68501085     -0.03305033     -1.64831318
C      -3.15997224      0.39947369     -1.75564998
C      -3.30565336      1.85213370     -1.36507499
O      -4.55491809      2.29303315     -0.81812798
C      -3.53995555      1.86408320      0.09899348
H      -5.40064002     -1.17239755     -1.81228947
H      -5.84027460      0.33645325     -1.00474580
H      -5.67571669     -1.15975876     -0.07933720
H      -4.21532561      0.21803526      1.36526302
H      -1.75987672      0.52778897      1.80168004
H      -2.07051816     -1.07516598      1.16766509
H      -0.81147261      1.32399109     -0.23675016
H       1.90756975     -1.95320934      0.37766650
H       2.35607616     -0.52245748      3.02565779
H       3.49273780     -1.76401664      2.49085832
H       1.86879020     -3.24438294      2.40973656
H       3.68920753      1.20757818      1.59415381
H       5.65874646      2.12573981      0.43947259
H       6.51900669      1.05000318     -1.62279756
H       5.39152143     -0.96212859     -2.53277264
H       3.42165001     -1.90626006     -1.39589088
H      -1.07980353      0.48532978     -2.40289345
H      -1.58958467     -1.10409500     -1.87341722
H      -3.55751706      0.18511622     -2.75285961
H      -2.65171706      2.56195483     -1.84339213
H      -3.06500954      2.58237513      0.74651828
