46
CN(C)CCC=C1c2ccccc2CCc2ccccc21.Cl
C       4.54142357     -0.65273467     -1.19038137
N       3.52047670     -0.27835179     -0.25223740
C       4.07341163     -0.20361953      1.06286850
C       2.80996863      0.90703955     -0.64872298
C       1.74383062      1.21508665      0.42738294
C       0.81117929      0.07599699      0.53372844
C      -0.47514309      0.00766117      0.51217268
C      -1.14659565     -1.31444188      0.63080557
C      -0.37975981     -2.19916233      1.30888953
C      -0.85303814     -3.48839408      1.45833457
C      -2.07132152     -3.88341511      0.94036104
C      -2.83129551     -2.98803848      0.26604315
C      -2.38214816     -1.66620355      0.09417066
C      -3.40126377     -0.86472561     -0.60928420
C      -2.93713074      0.34158119     -1.35826398
C      -2.33906843      1.38750964     -0.48566885
C      -2.94689693      2.60957472     -0.52586293
C      -2.49024527      3.64707208      0.26247995
C      -1.40216986      3.44946857      1.10756462
C      -0.76266903      2.24549553      1.18263465
C      -1.24167375      1.23659617      0.38243391
Cl      0.69056710      0.00000000      0.00000000
H       5.01179590      0.20932151     -1.69372913
H       5.32860003     -1.20520906     -0.63601690
H       4.13439857     -1.35687748     -1.95607526
H       4.25147143      0.85893673      1.39982568
H       3.49478387     -0.77552819      1.82922459
H       5.10488933     -0.66309215      1.08857978
H       3.49952219      1.77114923     -0.71942710
H       2.27903778      0.80506275     -1.59148930
H       1.31966793      2.15275256      0.09251765
H       2.26678508      1.33051652      1.37495244
H       1.32198581     -0.90585528      0.62422169
H       0.56023872     -1.88211976      1.74509419
H      -0.25369170     -4.21146182      1.99640099
H      -2.41990774     -4.92337599      1.07726494
H      -3.79084968     -3.21016211     -0.16868558
H      -4.01484890     -1.53945533     -1.26477886
H      -4.13559554     -0.44257993      0.16142050
H      -3.82213231      0.79367680     -1.87311605
H      -2.20199159      0.00618799     -2.14219382
H      -3.80244353      2.75110514     -1.19440540
H      -2.98796379      4.59461162      0.20767500
H      -1.04075467      4.24287188      1.71995296
H       0.05713202      2.01552914      1.83800209
H      -0.69056710      0.00000000      0.00000000
