45
C=CC1=C(C(=O)O)N2C(=O)[C@@H](NC(=O)/C(=N\OCC(=O)O)c3csc(N)n3)[C@H]2SC1
C       4.35761467      3.85873825     -1.50129153
C       4.01913306      3.00958895     -0.52105209
C       3.21153498      1.78998734     -0.65080235
C       3.07840207      0.89738889      0.36273881
C       3.62988043      1.17195432      1.71582162
O       4.80299492      1.24440714      2.02861717
O       2.63115639      1.37582371      2.60672484
N       2.35701909     -0.24665962      0.22738913
C       1.94504270     -1.25045666      1.02701255
O       2.19571760     -1.53379638      2.17345558
C       0.95443611     -1.72951767     -0.10340260
N      -0.46564848     -1.41607566      0.20499285
C      -1.48072669     -1.62761383     -0.70605921
O      -1.33193468     -2.16617420     -1.79313804
C      -2.85119412     -1.10913117     -0.25152687
N      -3.04893780      0.12383398      0.14104563
O      -1.88371453      0.89380567      0.02745013
C      -1.95286068      2.03334908      0.87890197
C      -0.60018724      2.22726493      1.53178099
O      -0.04451759      3.29593197      1.73247756
O      -0.03841740      1.06686606      1.94613926
C      -3.98641532     -2.02466122     -0.18972937
C      -5.30144239     -1.63926178      0.00910744
S      -6.32674043     -3.01024810      0.02497869
C      -4.96166085     -4.02059778     -0.20738497
N      -5.08128098     -5.35503142     -0.29853937
N      -3.81337070     -3.40084355     -0.30229732
C       1.78171145     -0.74979395     -0.99947992
S       0.95146990      0.61796957     -1.83133300
C       2.47678016      1.60622085     -1.97382299
H       4.06683451      3.73582662     -2.53806320
H       4.97275385      4.72664092     -1.27581005
H       4.41076077      3.25192635      0.46720734
H       3.12511787      1.48474302      3.45037914
H       1.08335750     -2.78612128     -0.36313873
H      -0.67688407     -0.76566277      0.96306945
H      -2.18393580      2.90731060      0.26365836
H      -2.70561199      1.91981642      1.66663390
H       0.84267368      1.32056122      2.32248285
H      -5.69630228     -0.64089444      0.13518927
H      -5.97566627     -5.71690193     -0.60643446
H      -4.28865080     -5.81982774     -0.72888486
H       2.52009030     -1.26741191     -1.62491841
H       3.14291025      1.14828619     -2.71332106
H       2.13870881      2.56844102     -2.37092973
