18
O=C(O)c1cccc(Cl)c1C(=O)O
O      -2.65851436     -0.60398562     -0.16130203
C      -1.61374199     -1.20271516     -0.00319777
O      -1.59721350     -2.51697303      0.28360479
C      -0.24468116     -0.64394795     -0.08659603
C       0.81871601     -1.46384555     -0.49888322
C       2.10749300     -0.94171080     -0.61466915
C       2.34316385      0.40041379     -0.31773146
C       1.29250532      1.22497668      0.09741407
Cl      1.66860776      2.86742412      0.48195473
C      -0.00207874      0.70466153      0.20527681
C      -1.08811275      1.55136407      0.69759998
O      -1.53479065      1.54509006      1.82697689
O      -1.55290467      2.33435065     -0.28816552
H      -2.54647679     -2.75744417      0.34567413
H       0.64775219     -2.51210207     -0.73838494
H       2.92763375     -1.58104919     -0.93498060
H       3.35234440      0.79813368     -0.40476220
H      -2.31970165      2.79735897      0.11017153
