37
CCCCCCP(=O)(OCC)OCC
C       5.30361785      1.41854720     -0.33712020
C       3.78410054      1.46573550     -0.35189497
C       3.18527089      0.11014523     -0.72637142
C       1.65599899      0.16287538     -0.73975639
C       1.05745620     -1.19590678     -1.10309815
C      -0.45978351     -1.15767883     -1.25917313
P      -1.37894978     -0.80666063      0.23355361
O      -0.98387755     -1.59932598      1.44159250
O      -2.92667442     -0.98142934     -0.19160688
C      -3.47255834     -2.28847425     -0.13131588
C      -4.86217912     -2.26182503     -0.73277789
O      -1.25704396      0.79143107      0.41357003
C      -1.82456578      1.34758286      1.58730031
C      -1.67647001      2.85362223      1.52949166
H       5.66632313      0.68705348      0.39205409
H       5.69728913      1.14688761     -1.32178001
H       5.71062899      2.39797294     -0.06698050
H       3.42427156      1.77150080      0.63743874
H       3.45489122      2.22865177     -1.06693752
H       3.55172308     -0.19258945     -1.71484718
H       3.52033050     -0.65031313     -0.01045025
H       1.30264103      0.47181555      0.24995808
H       1.32073486      0.91963749     -1.45901007
H       1.32439819     -1.92846599     -0.33244248
H       1.49484832     -1.54521146     -2.04618867
H      -0.77871554     -2.14170520     -1.62081285
H      -0.74055055     -0.43562334     -2.03413458
H      -3.52113664     -2.60913247      0.91396630
H      -2.83543928     -2.98373473     -0.68621423
H      -5.32088607     -3.25398399     -0.70020998
H      -4.82511167     -1.92345908     -1.77356696
H      -5.50333463     -1.55794966     -0.19185949
H      -2.88258255      1.07417123      1.64945823
H      -1.30278091      0.95222924      2.46437297
H      -2.10050953      3.32233983      2.42185539
H      -0.62096730      3.13440510      1.45006821
H      -2.18040733      3.25686483      0.64488185
