24
CCCCCCCO
C      -3.88274342      0.63382770     -0.06447686
C      -2.71233288     -0.33652720     -0.05681779
C      -1.37598385      0.39863381      0.04279375
C      -0.20125798     -0.58101934      0.05014779
C       1.13678528      0.15482383      0.15034804
C       2.31109353     -0.82801096      0.15629964
C       3.65794407     -0.13509233      0.33247007
O       3.96403965      0.68066945     -0.78910627
H      -3.90405268      1.23006337      0.85333846
H      -3.82010291      1.31734680     -0.91724528
H      -4.82806499      0.08690360     -0.13626084
H      -2.82226923     -1.02574786      0.78851812
H      -2.73876105     -0.93893437     -0.97230199
H      -1.27298480      1.08969253     -0.80272135
H      -1.35633257      1.00281650      0.95802215
H      -0.30496937     -1.27192736      0.89565873
H      -0.22052360     -1.18479465     -0.86533159
H       1.15697630      0.75616540      1.06727434
H       1.23174022      0.84704755     -0.69421330
H       2.17738994     -1.55150990      0.96899927
H       2.31130323     -1.38517002     -0.78837277
H       4.44960317     -0.88588097      0.41883310
H       3.67920483      0.48144386      1.23703534
H       3.36429911      1.44518056     -0.77175244
