46
CCCN1CCCC[C@H]1C(=O)Nc1c(C)cccc1C
C      -3.45655394      2.65625970      2.17042433
C      -2.27894231      1.85536380      1.63356001
C      -2.71747179      0.90446892      0.51158439
N      -1.56951784      0.20670991     -0.09405929
C      -1.89725725     -0.29990888     -1.44211472
C      -2.83757536     -1.50399203     -1.45139699
C      -2.26826733     -2.64431853     -0.61925400
C      -1.90637605     -2.16543167      0.78236981
C      -1.03998340     -0.89566333      0.77125955
C       0.43632087     -1.18538892      0.37569479
O       0.89129100     -2.32033661      0.29664522
N       1.11871408      0.00291509      0.14459094
C       2.46128779      0.14969112     -0.26920308
C       2.73854385      1.16155650     -1.22344368
C       1.66028612      2.04583976     -1.79594907
C       4.05104845      1.33835469     -1.69175296
C       5.08478557      0.53903559     -1.22137615
C       4.82346246     -0.42469246     -0.25357395
C       3.52535957     -0.61215298      0.25932507
C       3.38765365     -1.60054774      1.38656783
H      -4.22473234      1.99452378      2.58252093
H      -3.91127578      3.26272871      1.38148098
H      -3.12503307      3.32898480      2.96797839
H      -1.51774148      2.54945359      1.25665502
H      -1.83143259      1.30388337      2.46591348
H      -3.20887569      1.52003959     -0.25360469
H      -3.47512485      0.20364745      0.88192628
H      -0.96403238     -0.57413569     -1.95092271
H      -2.32371343      0.50538128     -2.05271572
H      -2.98775862     -1.84395023     -2.48290539
H      -3.82418116     -1.21908310     -1.06692291
H      -1.37793416     -3.04951378     -1.11483002
H      -2.99556061     -3.46151184     -0.55793543
H      -2.83239574     -1.96737025      1.33630154
H      -1.39647181     -2.97500910      1.31819738
H      -0.95832821     -0.54802683      1.80898519
H       0.46435757      0.74008311     -0.10616834
H       1.20029503      2.64580532     -1.00422453
H       2.06020011      2.74145730     -2.54165420
H       0.89545805      1.43911122     -2.29322960
H       4.27313916      2.09740297     -2.43884013
H       6.09547518      0.67498623     -1.59654271
H       5.64908812     -1.02499697      0.12541817
H       4.29082585     -1.59894324      2.00872312
H       3.25222561     -2.61322428      0.99606096
H       2.56671910     -1.33948534      2.06043689
