33
CC(Oc1ccc(Oc2ccc(Cl)cc2Cl)cc1)C(=O)O
C      -4.90381359     -0.95865592     -1.64653762
C      -3.63835621     -0.36805952     -1.02959504
O      -2.63915875     -1.38156172     -1.11458544
C      -1.32536745     -1.02343786     -0.99902783
C      -0.83411340      0.25365699     -0.72315242
C       0.54524661      0.47129970     -0.62712961
C       1.43384986     -0.59284810     -0.79076965
O       2.79940292     -0.43631587     -0.73071058
C       3.29988097      0.25414773      0.35194441
C       2.97364661     -0.12404291      1.66032902
C       3.52541956      0.56515198      2.74177166
C       4.41171507      1.61762361      2.51365794
Cl      5.08891460      2.46423628      3.84976955
C       4.75817768      1.98712798      1.21520209
C       4.20623926      1.29866828      0.13358413
Cl      4.65410530      1.77910039     -1.46270420
C       0.95225777     -1.86412778     -1.09002476
C      -0.42412394     -2.07713200     -1.18322558
C      -3.94869288      0.06205350      0.40525021
O      -3.52219525     -0.42053938      1.44142503
O      -4.78415449      1.12400358      0.45831696
H      -4.71031768     -1.29582698     -2.67067760
H      -5.72177141     -0.23169059     -1.66798699
H      -5.24161288     -1.83482138     -1.08097760
H      -3.34647634      0.50901961     -1.61957926
H      -1.48718017      1.10602892     -0.57372872
H       0.91353420      1.47435211     -0.43059690
H       2.29637789     -0.95500179      1.84305853
H       3.26464190      0.27299384      3.75615612
H       5.45501524      2.80356654      1.04678920
H       1.64178477     -2.68942636     -1.24275631
H      -0.79899736     -3.07393715     -1.40354288
H      -4.89387843      1.28439428      1.42015132
