34
COC(=O)c1ccc(C(=O)Nc2cc(Cl)ccc2Cl)cc1[N+](=O)[O-]
C      -6.38142909     -0.46603233      0.03029856
O      -4.99376263     -0.12541248      0.06485388
C      -4.23228357     -1.00023479      0.76051209
O      -4.58983149     -2.04948570      1.26602668
C      -2.82458021     -0.55655168      0.72139922
C      -1.85101400     -1.53241768      0.46142504
C      -0.49901581     -1.17880666      0.36672889
C      -0.10622637      0.15850128      0.52727412
C       1.32273654      0.57614650      0.44920478
O       1.68347856      1.51245036      1.15018007
N       2.09580636     -0.13007694     -0.44900243
C       3.48078806      0.02426508     -0.71107453
C       4.30439972      0.90449367     -0.00261640
C       5.66371479      1.00030762     -0.31492980
Cl      6.66815160      2.08743944      0.56439802
C       6.22092090      0.22431269     -1.32960580
C       5.41377246     -0.66073923     -2.04166593
C       4.05476691     -0.75981673     -1.73262068
Cl      3.09224072     -1.87765737     -2.64112728
C      -1.06686215      1.13426611      0.82180774
C      -2.41548454      0.76454080      0.92060712
N      -3.36829124      1.78750821      1.30253523
O      -4.06137426      1.56747032      2.30369786
O      -3.38956391      2.81762273      0.61706555
H      -6.78785942     -0.52701254      1.04481072
H      -6.91072155      0.32489014     -0.50809986
H      -6.52827942     -1.40960806     -0.50427254
H      -2.14389640     -2.57498514      0.33472182
H       0.23355433     -1.96549618      0.19774624
H       1.63325187     -0.79922313     -1.05574563
H       3.91698667      1.52522526      0.79899369
H       7.27889881      0.30423388     -1.56695937
H       5.84793084     -1.26785881     -2.83204990
H      -0.76092309      2.16774135      0.98548283
