60
CCN(CC[N+](C)(C)CC(C)O)c1ccc(N=Nc2ccc([N+](=O)[O-])cc2Cl)cc1.[Cl-]
C      -1.40930107      2.86682311     -1.25146495
C      -1.73769722      2.37576158      0.15189088
N      -1.42877085      0.92998735      0.31794047
C      -2.14691982      0.28819786      1.44451174
C      -3.57327650     -0.18312199      1.05871956
N      -3.67210677     -1.21764301     -0.09147932
C      -3.38034922     -0.55717463     -1.44296405
C      -2.66867190     -2.35368624      0.10089930
C      -5.09177691     -1.86301952     -0.11063927
C      -6.26691280     -0.86784267     -0.27223523
C      -7.59524455     -1.61612168     -0.21908977
O      -6.17712290     -0.18791378     -1.52237144
C      -0.02513888      0.73088993      0.42488366
C       0.65775539      0.18995939     -0.67181858
C       2.03666126     -0.03303390     -0.61787895
C       2.76689606      0.29325596      0.52992110
N       4.14882344      0.04943561      0.61535600
N       4.76797467      0.77774849     -0.19197968
C       6.14327078      0.47995104     -0.15010290
C       6.94643210      1.05543317      0.84732046
C       8.31922207      0.79635201      0.90090404
C       8.90018090     -0.04126753     -0.06014246
N      10.34154201     -0.31867592     -0.00760196
O      10.98811186      0.18013948      0.92354972
O      10.81992297     -1.03580920     -0.89667709
C       8.12056190     -0.61521880     -1.07179926
C       6.74864884     -0.34799882     -1.11262793
Cl      5.81740328     -1.06765266     -2.38039513
C       2.08987280      0.82879063      1.62789554
C       0.70930915      1.05248068      1.57591198
Cl      0.00000000      0.00000000      0.00000000
H      -1.76398575      3.89412480     -1.38250516
H      -1.88851985      2.24093193     -2.01108608
H      -0.33151493      2.86331209     -1.43983188
H      -1.22791661      2.99039705      0.90450725
H      -2.81280962      2.52684591      0.30595141
H      -1.59528793     -0.58114429      1.82582017
H      -2.23062322      0.99011334      2.28523137
H      -4.03227536     -0.65518386      1.93547623
H      -4.18793631      0.67532590      0.76941934
H      -3.77691185     -1.19870269     -2.23577151
H      -2.30094310     -0.47247005     -1.57719803
H      -3.83891735      0.43369788     -1.46900340
H      -1.65223623     -1.96413635      0.01261851
H      -2.83017968     -2.78968988      1.09099764
H      -2.84075409     -3.10197722     -0.67909578
H      -5.19066053     -2.41622885      0.83103594
H      -5.08752061     -2.57935506     -0.94149054
H      -6.25387108     -0.11804290      0.52418185
H      -7.70978275     -2.15679434      0.72552302
H      -8.43340623     -0.91846469     -0.32277159
H      -7.67597058     -2.32985446     -1.04643119
H      -7.00341346      0.31443307     -1.65976997
H       0.12184749     -0.05401156     -1.58428865
H       2.55034239     -0.45597849     -1.47823945
H       6.49246022      1.70995150      1.58893238
H       8.91531951      1.25309621      1.68972362
H       8.56621995     -1.26241139     -1.82498828
H       2.64565600      1.08221432      2.52740742
H       0.22429150      1.49097613      2.44356982
