12
C.O=S(=O)(O)O
C       0.00000001     -0.00000001     -0.00000001
O      -1.07786558      1.29389427     -0.25354700
S      -0.10467151      0.36175745      0.25596859
O       0.55689289      0.50664394      1.52755510
O       1.05341150      0.18987244     -0.84072572
O      -0.79416106     -1.08586833      0.20674497
H      -0.62722018      0.89266724     -0.05137595
H      -0.52228039     -0.83916104     -0.46468427
H       0.21165600     -0.23658062      1.04505063
H       0.93784456      0.18307443     -0.52899040
H       1.82698493     -0.20211526     -0.38499061
H      -1.46059117     -1.06418452     -0.51100533
