19
COC1CCCC1
C       2.73886487     -0.11258931     -0.01587190
O       1.64125628      0.01223683     -0.90987379
C       0.42950448      0.35474339     -0.25348802
C      -0.65427717      0.63363340     -1.28690699
C      -1.94495422      0.52888197     -0.48994093
C      -1.66673285     -0.49965701      0.60622635
C      -0.17178346     -0.80051587      0.54107897
H       2.58326390     -0.94301824      0.67850780
H       3.63694601     -0.32006270     -0.60406144
H       2.89339942      0.81890949      0.53711802
H       0.57265540      1.23947110      0.38072552
H      -0.53216283      1.61333907     -1.75941362
H      -0.62930657     -0.11564282     -2.08813038
H      -2.79201547      0.24099808     -1.12001581
H      -2.18523480      1.49680224     -0.03435077
H      -2.25191811     -1.41304206      0.45615469
H      -1.94185826     -0.09162155      1.58514039
H       0.26929610     -0.88832846      1.53913803
H       0.00505727     -1.75453756      0.02902039
