14
CC(C)O[N+](=O)[O-]
C      -0.52247263      1.30542483      0.21434997
C      -0.09256508     -0.09463961     -0.21625816
C      -1.30737074     -1.01933360     -0.26435929
O       0.80360594     -0.64769204      0.74902775
N       2.16141210     -0.30146726      0.54486509
O       2.42590099      0.44051921     -0.40166687
O       2.90939747     -0.80861765      1.37874642
H      -1.26161011      1.72216955     -0.47689098
H       0.33284726      1.98734822      0.25233246
H      -0.95393485      1.28957224      1.22145592
H       0.33973455     -0.07782947     -1.22430220
H      -1.77878410     -1.10358690      0.72127394
H      -2.05275130     -0.66086930     -0.98096355
H      -1.00340950     -2.03099821     -0.55483531
