45
CCC1C(N)CN1c1c(F)cc2c(=O)c(C(=O)O)cn(C3CC3)c2c1F
C       5.37242133      1.74319545      0.21456018
C       4.02715962      1.31246186     -0.34954801
C       3.33463211      0.35079022      0.61147483
C       3.89433972     -1.09268038      0.60170949
N       4.39006037     -1.46729837      1.93477089
C       2.44099582     -1.54636429      0.42422407
N       2.11496255     -0.18923391      0.04784474
C       0.80465810      0.36015230      0.08838145
C       0.54873712      1.67190883      0.50884980
F       1.54166034      2.46406585      0.93844688
C      -0.73562920      2.20428862      0.51297139
C      -1.81064651      1.41689983      0.09522644
C      -3.16811486      2.01190259      0.07517707
O      -3.37111770      3.15868479      0.46867761
C      -4.28430721      1.20307385     -0.45321461
C      -5.66519588      1.70599403     -0.60152978
O      -6.57889008      1.03392755     -1.05738722
O      -5.84548152      2.97944984     -0.19004979
C      -4.00323314     -0.05959983     -0.80572143
N      -2.76877475     -0.67767217     -0.70687860
C      -2.66228955     -2.09065671     -1.12056954
C      -2.32848708     -3.17420287     -0.12292607
C      -3.68766036     -3.13501464     -0.74319842
C      -1.62677980      0.08536395     -0.31964459
C      -0.30580994     -0.40822233     -0.32854888
F      -0.07199695     -1.65179196     -0.78117433
H       6.04081428      0.88607101      0.34399570
H       5.85807160      2.45409261     -0.46100727
H       5.25157173      2.22509225      1.19028245
H       3.41530200      2.20610896     -0.51079816
H       4.17736671      0.84922628     -1.33240751
H       3.15736591      0.77368749      1.60985948
H       4.55803055     -1.35489930     -0.22851335
H       5.28969559     -1.04640775      2.16504303
H       3.76406553     -1.22381401      2.70254763
H       2.27938240     -2.26165045     -0.38670895
H       1.90669682     -1.86595890      1.32610477
H      -0.88085731      3.23078132      0.84014559
H      -5.03056276      3.41097872      0.16564065
H      -4.78628708     -0.70196508     -1.20574842
H      -2.22785125     -2.18647581     -2.11412343
H      -1.64041328     -3.94946716     -0.43922963
H      -2.23930920     -2.90158295      0.92184034
H      -4.51640747     -2.86327327     -0.10039891
H      -3.93188731     -3.88996607     -1.48173688
