6
F[B-](F)(F)F.[K+]
F      -0.35176583     -0.73896853      1.17768941
B       0.02928341     -0.00238428     -0.00610737
F       1.44785614     -0.15595799     -0.25906376
F      -0.78335583     -0.49413958     -1.11174625
F      -0.34201789      1.39145039      0.19922796
K       0.00000000      0.00000000      0.00000000
