22
Clc1ccc(-c2cccc(Cl)c2Cl)cc1
Cl     -5.20188503     -0.36177481     -0.51670137
C      -3.49412466     -0.24265340     -0.34700644
C      -2.71701071      0.15761585     -1.43130541
C      -1.32970447      0.25560019     -1.29249045
C      -0.70860267     -0.04764788     -0.07018488
C       0.74983529      0.06287498      0.07662865
C       1.29708042      1.31673564      0.41056488
C       2.67259510      1.48621420      0.56532073
C       3.52760970      0.40227251      0.38818918
C       3.01026275     -0.85318852      0.05555960
Cl      4.14488264     -2.14444596     -0.14655107
C       1.62547964     -1.03096616     -0.10202370
Cl      0.98360412     -2.59215133     -0.52124485
C      -1.50959778     -0.44709530      1.01181505
C      -2.89698173     -0.54549638      0.87423216
H      -3.18122737      0.39164031     -2.38554076
H      -0.73229789      0.56489627     -2.14811202
H       0.64035942      2.17455234      0.55391226
H       3.07553694      2.46281325      0.82418126
H       4.59958295      0.54053703      0.51036375
H      -1.05380711     -0.68992527      1.96992898
H      -3.50158956     -0.86040756      1.72046447
