29
CCCCC(=O)Oc1ccc([N+](=O)[O-])cc1
C      -4.65278776      1.45411119      0.10129880
C      -3.41903613      0.71452038     -0.39226520
C      -3.19407649     -0.58115456      0.39124235
C      -1.97464431     -1.35810064     -0.10405640
C      -0.66189011     -0.70408039      0.27088544
O      -0.51981444      0.16295777      1.12204021
O       0.34744086     -1.28329754     -0.49510471
C       1.60783387     -0.74974897     -0.22460514
C       2.44298823     -1.41579440      0.67238019
C       3.71973823     -0.90961701      0.92172992
C       4.14531140      0.25128567      0.25660623
N       5.48877605      0.78526430      0.51630006
O       6.20189477      0.18152996      1.33058519
O       5.83278365      1.80527266     -0.09793143
C       3.30459523      0.90363872     -0.65915390
C       2.02884673      0.39335731     -0.90510359
H      -5.55090903      0.83851860     -0.01158068
H      -4.79775818      2.37459243     -0.47284043
H      -4.55141348      1.72464276      1.15717469
H      -2.54887344      1.37348903     -0.29875909
H      -3.53978041      0.48772733     -1.45797681
H      -3.09249395     -0.35668793      1.45993254
H      -4.07943425     -1.21969789      0.28246638
H      -1.97739633     -2.35775887      0.34474037
H      -2.02388277     -1.46580951     -1.19346070
H       2.10261429     -2.31474011      1.17866230
H       4.36545544     -1.42463444      1.63006424
H       3.62639863      1.80186693     -1.18217390
H       1.36951373      0.88834719     -1.61259226
