86
CCCCCCCCCCCCCCCCCCCCCC(=O)NCCCN(C)C
C     -11.14055715      1.88094786      0.03043787
C     -10.50129430      1.13335965      1.19108679
C      -9.88216110     -0.20634354      0.78618754
C      -8.65388129     -0.05254780     -0.11463868
C      -8.02902882     -1.41355552     -0.43550081
C      -6.80254891     -1.32339785     -1.35098912
C      -5.60134027     -0.65925422     -0.67404192
C      -4.35878264     -0.57941829     -1.56598072
C      -3.76614682     -1.91703399     -2.01843515
C      -3.44001627     -2.91645139     -0.90454774
C      -2.53074783     -2.40061527      0.21515302
C      -1.15658893     -1.93296831     -0.27142304
C      -0.19008863     -1.61894528      0.87668529
C      -0.66221260     -0.55848038      1.87449473
C      -1.02753355      0.81448927      1.30065666
C       0.16637382      1.67375539      0.87038174
C       0.59131062      1.47010173     -0.58640682
C       1.64071210      2.48879832     -1.04877600
C       2.98910489      2.33741800     -0.34011196
C       3.99947172      3.37049726     -0.84713428
C       5.33203145      3.28714679     -0.10529824
C       6.20220110      2.12147698     -0.53816281
O       5.92682861      1.36879316     -1.46611046
N       7.35127072      2.00850638      0.21664010
C       8.36804613      1.01223282     -0.06937309
C       7.97681515     -0.37475264      0.43432944
C       9.00360402     -1.44280796      0.03763425
N      10.34918620     -1.19820959      0.58951475
C      11.33838360     -2.00178823     -0.13874987
C      10.40932813     -1.54616928      2.01588154
H     -11.62920555      2.79060354      0.39411043
H     -10.39861175      2.18107792     -0.71482216
H     -11.89728472      1.26293872     -0.46290257
H     -11.27177720      0.94470479      1.94888309
H      -9.74112398      1.76913367      1.66056672
H      -9.58674957     -0.73762079      1.69948258
H     -10.63589672     -0.82728216      0.29013562
H      -8.93144787      0.44014037     -1.05340255
H      -7.92517654      0.59148554      0.39080551
H      -8.78161291     -2.04028085     -0.93040489
H      -7.75425120     -1.92651833      0.49387897
H      -6.53480094     -2.34350906     -1.64850193
H      -7.06413064     -0.78157854     -2.26809155
H      -5.86153843      0.36693593     -0.39122787
H      -5.36565578     -1.18253439      0.25952432
H      -4.59872850      0.01080486     -2.45853400
H      -3.58979969     -0.01052787     -1.03275478
H      -4.45580542     -2.39880891     -2.72260634
H      -2.85553100     -1.71184053     -2.59494520
H      -2.97264269     -3.79860115     -1.36114287
H      -4.37487777     -3.27323102     -0.45529706
H      -2.39602957     -3.21282897      0.94092595
H      -3.03578900     -1.58970875      0.74947378
H      -1.26004652     -1.05395161     -0.91563061
H      -0.70740210     -2.72021674     -0.89003813
H       0.77980302     -1.32907309      0.46035760
H      -0.00185739     -2.54581075      1.43386085
H       0.11384504     -0.43219409      2.63980707
H      -1.53686373     -0.94577463      2.41146824
H      -1.53772647      1.35960412      2.10609691
H      -1.75980503      0.72876675      0.49195393
H      -0.12140234      2.72607832      0.99250497
H       1.00797589      1.50075482      1.54850293
H      -0.28816458      1.57234289     -1.23360400
H       0.98130677      0.46109462     -0.74262250
H       1.78975410      2.36392954     -2.12802371
H       1.25398201      3.50466659     -0.90091145
H       3.37182653      1.32380055     -0.50001071
H       2.86203977      2.46677248      0.73907555
H       3.58174310      4.37384066     -0.69761571
H       4.15117263      3.24747798     -1.92624243
H       5.90183709      4.20205643     -0.30119750
H       5.16183521      3.22548378      0.97458811
H       7.52434288      2.67005947      0.96247960
H       9.28892314      1.35560966      0.41200204
H       8.53360647      0.99489565     -1.15218369
H       7.00745948     -0.66139188      0.00966884
H       7.82999421     -0.35017901      1.51928254
H       9.05401371     -1.44633310     -1.05961882
H       8.63682097     -2.43459999      0.33004102
H      11.14100144     -3.07544890     -0.04784431
H      11.34129544     -1.73583028     -1.20284618
H      12.34816617     -1.80502265      0.23599874
H      11.40521977     -1.32638083      2.41844033
H      10.19970939     -2.61166545      2.18547757
H       9.70232222     -0.95109938      2.60636549
