23
CC1CCCC(=NO)C1=NO
C      -1.79860633     -0.12632089     -1.11344104
C      -1.26430675     -0.04825623      0.31489825
C      -0.68295501     -1.38348160      0.80464146
C       0.64743909     -1.75122943      0.14453819
C       1.69124993     -0.65625305      0.33977057
C       1.14553892      0.65254592     -0.17053824
N       1.69133648      1.44545646     -1.04301537
O       2.92359910      0.95783581     -1.48784834
C      -0.20256666      1.03353116      0.39758829
N      -0.33767154      2.22357077      0.90239361
O      -1.63369862      2.44195072      1.37881596
H      -2.56465943     -0.90371752     -1.20001195
H      -1.00943189     -0.34344842     -1.84047087
H      -2.25176556      0.82775136     -1.40497675
H      -2.10458733      0.19749922      0.97269855
H      -0.52495896     -1.32150248      1.88953329
H      -1.40718283     -2.19002734      0.63957122
H       0.49406515     -1.93337088     -0.92560058
H       1.01897844     -2.68770047      0.57620828
H       1.92195618     -0.53347611      1.40427110
H       2.61694725     -0.93996436     -0.16657436
H       3.22312515      1.66754456     -2.08716087
H      -1.59184476      3.37106280      1.67470960
