71
CCCCC(=O)O[C@]1(C(=O)CO)[C@@H](C)C[C@H]2[C@@H]3CCC4=CC(=O)C=C[C@]4(C)[C@@]3(F)[C@@H](O)C[C@@]21C
C       5.70385054      3.45732885      0.51580353
C       5.22424247      2.48233708     -0.54840334
C       3.73135745      2.65886882     -0.83666287
C       3.24079730      1.73323548     -1.94516812
C       3.16137626      0.29978666     -1.48962680
O       4.01529346     -0.54769993     -1.70084275
O       2.02022139      0.08671402     -0.78052799
C       1.71042721     -1.26998133     -0.34387846
C       2.80402425     -1.82542528      0.61641744
O       3.01442593     -3.03186284      0.78422291
C       3.57860658     -0.82358250      1.46808006
O       3.91060036     -1.38999060      2.72933555
C       1.37118213     -2.10914020     -1.64448488
C       2.00073364     -3.48647558     -1.80579831
C      -0.17370952     -2.20047859     -1.72025915
C      -0.64574297     -1.07634812     -0.80915180
C      -2.13383434     -1.02136447     -0.42569304
C      -3.01161563     -0.96277174     -1.69070690
C      -4.49150068     -0.79268317     -1.36657870
C      -4.70309113      0.40374400     -0.47515093
C      -5.50234931      1.41173642     -0.86859424
C      -5.68468722      2.62779557     -0.05076220
O      -6.42240180      3.53516564     -0.41264965
C      -4.94089479      2.70582100      1.21971994
C      -4.14402776      1.70460534      1.61668335
C      -3.91192344      0.40456586      0.84621225
C      -4.48272300     -0.72277659      1.73728897
C      -2.37922392      0.22561382      0.48822443
F      -2.02861082      1.32660519     -0.28116658
C      -1.39579435      0.26291398      1.69906460
O      -1.74133374     -0.67629206      2.71058307
C       0.08023699      0.05915317      1.28445930
C       0.30999781     -1.19063316      0.40132115
C       0.06682946     -2.47698305      1.24003138
H       5.55685425      4.49198020      0.19182864
H       5.16301301      3.31110357      1.45597826
H       6.77165149      3.31114777      0.70925195
H       5.42751817      1.46069571     -0.21055197
H       5.80177405      2.64057241     -1.46693547
H       3.15698348      2.48723906      0.08252147
H       3.54753031      3.69625108     -1.14297310
H       2.24206506      2.03827897     -2.28063350
H       3.88956724      1.78582415     -2.82712382
H       4.50351793     -0.55355293      0.95463957
H       2.98758134      0.07443724      1.65340394
H       4.18053558     -2.31227692      2.54136934
H       1.67830255     -1.53167406     -2.52646551
H       1.69487520     -4.17801044     -1.01580738
H       3.09318229     -3.41953215     -1.81582624
H       1.69393006     -3.93296978     -2.75811448
H      -0.51722731     -2.06178039     -2.75102335
H      -0.54540996     -3.17382694     -1.38014262
H      -0.42947830     -0.13636181     -1.34212597
H      -2.40527352     -1.93367850      0.11457228
H      -2.68375067     -0.13464749     -2.33295640
H      -2.88761905     -1.88223072     -2.27518568
H      -4.87678908     -1.69372253     -0.87655319
H      -5.04958905     -0.69319125     -2.30535186
H      -6.04097345      1.40305703     -1.80914758
H      -5.08425842      3.60490306      1.80608317
H      -3.64281279      1.80926547      2.57645748
H      -4.19747303     -1.72065463      1.39059288
H      -5.58046564     -0.69352035      1.75680685
H      -4.15936631     -0.63462482      2.77996632
H      -1.45096588      1.25584233      2.16080295
H      -1.11359292     -0.57290755      3.44812451
H       0.70500976     -0.00891002      2.18288702
H       0.39434581      0.96340798      0.74919550
H      -0.97794361     -2.62255102      1.51563217
H       0.63964227     -2.44511750      2.17354562
H       0.36437030     -3.38588540      0.71191694
