45
O=C(O)c1cc(C(=O)O)c(C(=O)O)cc1C(=O)O.c1ccc(C2=NCCN2)cc1
O       3.42706400      1.10876704     -1.06834123
C       2.40068849      1.51542111     -0.56165747
O       2.25108103      2.79645327     -0.18305184
C       1.17933223      0.72758771     -0.29172312
C      -0.07858635      1.32657608     -0.45947800
C      -1.24934857      0.57140746     -0.29091291
C      -2.52853180      1.28514053     -0.42860426
O      -2.81288702      2.06724255     -1.31352673
O      -3.31605620      1.06545683      0.63600634
C      -1.17219970     -0.79449275      0.00628409
C      -2.38807352     -1.63375023      0.05682797
O      -3.38473248     -1.50584254     -0.62570637
O      -2.27078478     -2.61162732      0.97157805
C       0.08552588     -1.39167043      0.18176409
C       1.25530262     -0.62725854      0.05263316
C       2.53157109     -1.31364840      0.30697749
O       2.84880873     -2.40418286     -0.12397914
O       3.27019543     -0.63528994      1.19923037
C       3.40598067      0.25843389     -0.27842391
C       2.88877994     -0.33352201      0.87347151
C       1.50924231     -0.49330749      1.01695094
C       0.64229715     -0.05594992      0.00922514
C      -0.82377837     -0.22461993      0.17803978
N      -1.32200964     -0.98721897      1.12127272
C      -2.79607597     -0.89328004      0.94168702
C      -3.03820105      0.28754112      0.00210756
N      -1.73991735      0.42671646     -0.61915815
C       1.16552493      0.52970188     -1.14941794
C       2.54656375      0.68706901     -1.29017808
H       3.11357033      3.21371048     -0.39423112
H      -0.15352915      2.38041492     -0.72726927
H      -4.13910592      1.56049609      0.43665440
H      -3.12688491     -3.08880916      0.92710336
H       0.16136383     -2.45390512      0.41373592
H       4.09621673     -1.15819677      1.27968620
H       4.48064751      0.37875439     -0.39049706
H       3.55748208     -0.67444646      1.65962035
H       1.11166099     -0.95869589      1.91616654
H      -3.29266813     -0.74329126      1.90518836
H      -3.16039433     -1.82920531      0.50359009
H      -3.82838445      0.08827542     -0.72642494
H      -3.28439686      1.19225961      0.56791474
H      -1.48855512      1.36181320     -0.91705857
H       0.51318574      0.84629910     -1.95740196
H       2.95301622      1.13667320     -2.19258365
