24
COC(=O)C(Cl)Cc1ccc(Cl)cc1
C      -3.07000691      1.21691761     -1.22965000
O      -2.16138585      0.11689160     -1.29680483
C      -1.97469448     -0.52435608     -0.10585687
O      -2.51990384     -0.21146489      0.94603750
C      -1.00509737     -1.67859408     -0.27727753
Cl     -1.97293867     -3.18399463     -0.33124611
C       0.00184779     -1.74111257      0.87179690
C       0.99741577     -0.60257071      0.82540721
C       2.12263498     -0.67687722     -0.00814879
C       3.02870702      0.38438376     -0.06732751
C       2.81281345      1.52419393      0.70407241
Cl      3.92832768      2.83170462      0.62792708
C       1.69858723      1.61193202      1.53505381
C       0.79237350      0.55119364      1.59564508
H      -4.06384598      0.87495290     -0.92437012
H      -3.14616671      1.65471749     -2.22874811
H      -2.69420788      1.98245668     -0.54359354
H      -0.48915437     -1.59373298     -1.23992303
H      -0.50712558     -1.74027807      1.84477268
H       0.56366467     -2.68405847      0.83245535
H       2.30573795     -1.56213663     -0.61418461
H       3.89929489      0.31555890     -0.71428758
H       1.52897728      2.50032739      2.13770288
H      -0.07585459      0.63394578      2.24868207
