54
CCCCc1ncc(/C=C(\Cc2cccs2)C(=O)O)n1Cc1ccc(C(=O)O)cc1
C      -4.56478939     -4.91910229     -0.89818498
C      -3.63773711     -4.11816633      0.00313189
C      -3.88711512     -2.61392534     -0.13457337
C      -3.06204686     -1.77481507      0.84416274
C      -1.59425232     -1.81748762      0.55743834
N      -0.75125339     -2.64195087      1.14724923
C       0.47706803     -2.37776097      0.61004250
C       0.40394315     -1.36267256     -0.31782755
C       1.35713490     -0.73523516     -1.15217109
C       2.22647778      0.19138983     -0.69834795
C       2.32894640      0.71589759      0.71770088
C       3.57434251      0.30975455      1.46592769
C       4.78576021      0.97122423      1.52988927
C       5.73723333      0.28824606      2.34093251
C       5.22052552     -0.86926840      2.87563027
S       3.59998840     -1.12669703      2.39974326
C       3.12436175      0.86689984     -1.66680604
O       3.77643698      1.87297029     -1.45062113
O       3.16689788      0.28058242     -2.87740740
N      -0.93219026     -1.00632107     -0.34722717
C      -1.54242743      0.00349952     -1.20681500
C      -1.16967341      1.41362679     -0.80952101
C      -1.46173753      1.91101112      0.46986423
C      -1.11856348      3.21980860      0.82063170
C      -0.47858338      4.05161480     -0.10296432
C      -0.14523737      5.43678895      0.30835941
O      -0.46521549      5.96433223      1.35777765
O       0.56931266      6.09798529     -0.62039223
C      -0.18511561      3.56535033     -1.38144529
C      -0.53534603      2.25853323     -1.73267200
H      -5.61237620     -4.74701476     -0.63498258
H      -4.36258966     -5.98943050     -0.79538765
H      -4.42406844     -4.64477632     -1.94755061
H      -2.60105232     -4.35530225     -0.25752284
H      -3.79236538     -4.42978578      1.04224938
H      -4.94854847     -2.41270475      0.05532432
H      -3.68578643     -2.30415769     -1.16688439
H      -3.23348657     -2.13245748      1.86705783
H      -3.41895016     -0.73941882      0.82745521
H       1.35233482     -2.93691240      0.91502808
H       1.33885964     -1.01914908     -2.20319158
H       1.45080224      0.43177881      1.31032273
H       2.28182034      1.81405299      0.69170170
H       4.98131148      1.90396497      1.01239335
H       6.74791023      0.63068043      2.52350472
H       5.71476819     -1.57781376      3.52823352
H       3.81401540      0.82639868     -3.37005214
H      -1.22667210     -0.22352006     -2.23181995
H      -2.63007171     -0.10317987     -1.18568867
H      -1.95328560      1.28512482      1.21036193
H      -1.35121392      3.58743029      1.82002227
H       0.72567479      6.97848883     -0.21543884
H       0.31272793      4.19690412     -2.11413268
H      -0.29690341      1.90468663     -2.73250812
