31
CNC(=O)Oc1cccc2c1OC(C)(C)C2
C       4.30591630     -1.77423653      0.13176802
N       3.57807297     -0.67233979      0.69725442
C       2.58986080     -0.03145475     -0.00143353
O       2.34226744     -0.22710772     -1.18416617
O       1.94702066      0.85724629      0.84321824
C       0.83395069      1.44496359      0.25374059
C       0.91163018      2.75760362     -0.21055179
C      -0.22302120      3.36343371     -0.77343153
C      -1.43475002      2.66766160     -0.86072705
C      -1.48627693      1.36812128     -0.38146432
C      -0.36962376      0.77009276      0.17595660
O      -0.59064616     -0.50433058      0.62875424
C      -1.90225761     -0.85948385      0.10622188
C      -2.65917462     -1.58989660      1.21638496
C      -1.69139228     -1.80039253     -1.08753628
C      -2.63562719      0.43709238     -0.30882157
H       5.21771296     -1.92497103      0.71404420
H       4.55853860     -1.56852241     -0.91188450
H       3.68132550     -2.66996485      0.18380627
H       3.55750897     -0.53741697      1.69825249
H       1.84600611      3.30663149     -0.14430938
H      -0.15900267      4.38450661     -1.14229475
H      -2.31203697      3.14193596     -1.28946731
H      -2.75212855     -0.95668593      2.10610579
H      -3.66227205     -1.88498739      0.89213104
H      -2.11633250     -2.48762914      1.53342986
H      -1.11646379     -1.31051141     -1.88157237
H      -2.64554943     -2.13433775     -1.50788020
H      -1.11412448     -2.68281651     -0.78871731
H      -3.33675662      0.77991692      0.45991852
H      -3.16237435      0.33787952     -1.26257038
