62
O=C1CCCCCN1C(=O)NCCCCCCNC(=O)N1CCCCCC1=O
O       3.92588499     -2.04594707     -1.31526294
C       4.92494283     -1.37093964     -1.57850199
C       6.02018141     -1.97262629     -2.44971319
C       7.43149112     -2.01648762     -1.85805773
C       7.69945113     -1.14215915     -0.63776623
C       7.51042385      0.35584054     -0.87826414
C       6.24298434      0.71693729     -1.65035075
N       5.08695465     -0.03967467     -1.17857480
C       4.27622995      0.61212763     -0.23782601
O       4.47778200      1.76993457      0.12768134
N       3.24994284     -0.13353327      0.28154163
C       2.22359399      0.46585171      1.10745106
C       1.43803880     -0.59524281      1.87283344
C       0.40811333      0.00048848      2.83631594
C      -0.75918974      0.68708360      2.12230448
C      -1.76341582      1.26380370      3.12682525
C      -2.92860937      1.96848998      2.43774840
N      -3.85250174      1.03874271      1.82885602
C      -4.98221320      1.46984985      1.18252530
O      -5.31045342      2.65637134      1.18499208
N      -5.72681950      0.47481202      0.53484341
C      -6.99301015      0.91193178     -0.04794926
C      -6.87546656      1.23328796     -1.53740343
C      -6.00987399      0.26403568     -2.34055035
C      -6.28086476     -1.21417233     -2.07151867
C      -6.11305762     -1.69235528     -0.62802586
C      -5.24318835     -0.80852963      0.25289184
O      -4.17519947     -1.25075677      0.68527056
H       5.72026691     -3.00006486     -2.69545913
H       6.02181786     -1.44757575     -3.41235552
H       8.14692892     -1.75855816     -2.64845119
H       7.65888268     -3.05455371     -1.58755978
H       7.05952573     -1.46497965      0.19391371
H       8.73044589     -1.31048278     -0.30000474
H       8.37609653      0.75526303     -1.41968284
H       7.49813391      0.85778884      0.09724340
H       6.38919697      0.52975234     -2.71853097
H       6.06905818      1.79602964     -1.56918158
H       3.01011196     -0.97234013     -0.24399396
H       2.69222017      1.17299663      1.80145132
H       1.57157662      1.03644518      0.43758145
H       2.13993050     -1.20852859      2.45277233
H       0.94341540     -1.27660292      1.16912426
H       0.01338662     -0.80875469      3.46305197
H       0.90451542      0.70919567      3.51076147
H      -0.38858574      1.50022295      1.48807488
H      -1.25513451     -0.03600134      1.46415972
H      -2.14082241      0.46701397      3.77943001
H      -1.24439380      1.98944788      3.76535531
H      -3.49171887      2.55841647      3.16974317
H      -2.57249500      2.65808837      1.66450095
H      -3.52858397      0.10501685      1.58654454
H      -7.74943063      0.13761186      0.11091840
H      -7.37540242      1.79659363      0.47666433
H      -6.45631036      2.24066348     -1.65727109
H      -7.88433280      1.26811125     -1.96599510
H      -6.16073212      0.46388795     -3.40797174
H      -4.95040601      0.47772569     -2.14942948
H      -7.29246883     -1.46821478     -2.41039421
H      -5.60099566     -1.79653893     -2.70677163
H      -7.08649976     -1.82783288     -0.14379172
H      -5.66934893     -2.69640684     -0.64108064
