45
CC(C)CC(N(C)C)C1(c2ccc(Cl)cc2)CCC1
C      -3.33782259     -2.02238805      0.05009540
C      -2.77635753     -0.59698753      0.07749127
C      -3.46969483      0.20131657      1.18364531
C      -1.24410535     -0.64973378      0.26293145
C      -0.49924765      0.70827674      0.14079878
N      -0.42857613      1.34369291     -1.19786345
C      -1.37275535      2.44927799     -1.34625392
C      -0.50166350      0.44675108     -2.34653099
C       0.94037622      0.60922945      0.77031689
C       1.91140582     -0.44187188     -0.01331275
C       2.74051400     -0.03620155     -1.08217102
C       3.58607023     -0.92520456     -1.75440245
C       3.62608503     -2.25890376     -1.37035337
Cl      4.66029615     -3.35965462     -2.19266047
C       2.82812434     -2.70579184     -0.32486461
C       1.98640153     -1.80679003      0.33982613
C       0.90895379      0.46834061      2.34825930
C       2.06508947      1.47977198      2.40972002
C       1.56271450      2.03602330      1.06750691
H      -2.88914495     -2.60145441     -0.76404893
H      -4.42141956     -2.01135725     -0.10871243
H      -3.13830558     -2.54705317      0.99073203
H      -3.02167793     -0.13234281     -0.88214010
H      -3.20978345     -0.18477515      2.17506628
H      -4.55859621      0.14732991      1.07628331
H      -3.19625047      1.25956450      1.14710048
H      -1.04310791     -1.07799271      1.25401019
H      -0.82289574     -1.37200998     -0.44630197
H      -1.03667736      1.40276644      0.79930471
H      -1.21944026      3.20000061     -0.56297988
H      -2.41419029      2.11481359     -1.30643070
H      -1.21607833      2.96631136     -2.29979995
H      -1.50280262      0.03290985     -2.49951568
H       0.20149422     -0.38593014     -2.26873524
H      -0.22741436      0.98771689     -3.25978340
H       2.71005441      1.00145597     -1.41164565
H       4.20151841     -0.56584745     -2.57418853
H       2.85172350     -3.74796067     -0.01894594
H       1.36895601     -2.18458626      1.15237988
H      -0.01013260      0.83594839      2.82205587
H       1.13409718     -0.51342179      2.77223545
H       3.05946876      1.02200808      2.35693576
H       2.04234200      2.17667415      3.25121410
H       2.34599069      2.39706259      0.39659198
H       0.82646425      2.84101640      1.18713992
