19
O=C([O-])COc1ccccc1.[Na+]
O       3.03007476      1.44688825      0.44102187
C       2.88388403      0.25121862      0.83906653
O       3.24091468     -0.27025419      1.93477979
C       2.24536202     -0.70020887     -0.19219156
O       0.99326629     -1.24756732      0.26628986
C      -0.14294372     -0.52152551      0.04440569
C      -1.33330186     -1.21633406      0.27991893
C      -2.57185476     -0.59893935      0.09247248
C      -2.62741179      0.72771440     -0.32728873
C      -1.44527853      1.43114631     -0.55252191
C      -0.20619746      0.80888906     -0.36567845
Na      0.00000000      0.00000000      0.00000000
H       2.92773822     -1.54957150     -0.31597514
H       2.14598088     -0.24574947     -1.18518434
H      -1.28555091     -2.24862462      0.61582821
H      -3.48581362     -1.15299167      0.28168496
H      -3.58609095      1.21727111     -0.46772236
H      -1.47599849      2.47188248     -0.86257247
H       0.69322122      1.39675632     -0.52633338
