16
CCOC1CC1
C       2.57694852     -0.38710455      0.08341287
C       1.12054078     -0.74492875     -0.13238524
O       0.33979364      0.44146668     -0.01150290
C      -1.07050490      0.19894861     -0.16994383
C      -1.85158662      0.00540033      1.09845199
C      -1.96003564      1.29663030      0.34090698
H       2.90447725      0.35598331     -0.65117944
H       2.72185105      0.05832082      1.07321177
H       3.21321322     -1.27239525     -0.00201927
H       0.79872695     -1.47545056      0.61779724
H       0.98284594     -1.17246834     -1.13144280
H      -1.40539831     -0.31977496     -1.06334869
H      -2.69639068     -0.67180106      1.07397683
H      -1.31037194      0.01393384      2.03711866
H      -1.48722797      2.17632042      0.76169020
H      -2.87688129      1.49691915     -0.19961904
