44
NC(CSCCCCCCSCC(N)C(=O)O)C(=O)O
N      -3.44968473      0.46001370      2.58420356
C      -3.85778410      0.54297632      1.15241592
C      -3.78060295      2.00364075      0.68219172
S      -3.98268251      2.29521561     -1.12108214
C      -2.62464256      1.28434317     -1.81858343
C      -1.23679116      1.75214829     -1.37615537
C      -0.09737550      1.02662420     -2.10815586
C      -0.03570430     -0.49107697     -1.89683586
C       0.06986108     -0.95572809     -0.43761042
C       1.27300500     -0.42428544      0.34631745
S       2.85050553     -1.10194047     -0.26465070
C       4.00763484     -0.13274062      0.77998929
C       5.22154602     -0.96006259      1.25128088
N       4.84621399     -2.31600539      1.79037974
C       6.26825037     -1.14147798      0.13209724
O       6.67279540     -0.26042423     -0.61648704
O       6.74634000     -2.42032752      0.11574451
C      -5.27848015     -0.00561681      1.00979276
O      -6.14505721      0.01342277      1.87195466
O      -5.50897964     -0.58687643     -0.18386823
H      -3.53458778     -0.51624486      2.88108608
H      -4.16322546      0.94593795      3.13676506
H      -3.17235774     -0.10809288      0.60264949
H      -2.82879488      2.45555838      0.98596975
H      -4.56758640      2.59340165      1.17418986
H      -2.79851467      0.23220159     -1.56768041
H      -2.70391436      1.36637630     -2.91045899
H      -1.12980930      2.82597099     -1.58235639
H      -1.10955708      1.62426966     -0.29471984
H       0.85834210      1.47197982     -1.80420560
H      -0.18821909      1.22392414     -3.18519967
H      -0.92632821     -0.95201869     -2.34123671
H       0.81532827     -0.88402803     -2.46851177
H      -0.84450581     -0.66179373      0.09399454
H       0.07745713     -2.05487074     -0.41836649
H       1.17134817     -0.72895244      1.39167450
H       1.30435386      0.66623932      0.31730578
H       3.46202639      0.21566612      1.66412317
H       4.32590960      0.74938514      0.20854224
H       5.73931331     -0.42335805      2.05493573
H       4.11530407     -2.68053797      1.15721353
H       4.33235458     -2.16963893      2.66903631
H       6.25217239     -2.89625692      0.83656913
H      -6.44487650     -0.87694010     -0.14268446
