14
CC(=O)c1cccs1
C       2.36614631     -0.65088335      0.33632725
C       1.41245559      0.46520893     -0.02215182
O       1.86822628      1.58166755     -0.28162919
C      -0.02070094      0.19209753     -0.05161032
C      -1.02169241      1.09755120     -0.35842712
C      -2.32325635      0.52181243     -0.29961201
C      -2.27847936     -0.80805400      0.05078668
S      -0.67735575     -1.34878889      0.30457025
H       3.39279555     -0.27185903      0.30956195
H       2.16596867     -1.01212134      1.34853980
H       2.28811687     -1.46563257     -0.38840062
H      -0.81940925      2.13220293     -0.61437100
H      -3.24304253      1.05652142     -0.50391121
H      -3.10977268     -1.48972283      0.17032736
