19
O=C(O)COc1c(Cl)ccc(Cl)c1Cl
O      -3.46818529      0.32604744      1.60007925
C      -3.13409788      0.51287331      0.44230814
O      -4.05272459      0.90756116     -0.46807257
C      -1.75591948      0.35897890     -0.17327961
O      -0.81470106     -0.05264503      0.82171159
C       0.44194185     -0.19835924      0.28262947
C       0.84774174     -1.44708708     -0.21003118
Cl     -0.20934868     -2.81224749     -0.20124828
C       2.13548596     -1.61625763     -0.72019993
C       3.02976424     -0.54518502     -0.72354121
C       2.64327446      0.69583446     -0.20660168
Cl      3.81689665      1.96534773     -0.23599295
C       1.35077619      0.87392833      0.30883110
Cl      0.86192790      2.39622971      0.98312778
H      -4.88138680      0.96818359      0.05410444
H      -1.46828230      1.32919889     -0.59365134
H      -1.82809752     -0.39314619     -0.96686558
H       2.45212077     -2.58185913     -1.10886935
H       4.03281383     -0.68739671     -1.12104318
