40
CCN(CC)CC(C)OC(=O)c1ccc(N)cc1
C      -4.70469434     -0.19176505     -1.55195192
C      -3.47306441      0.27550781     -0.78154351
N      -2.78432465     -0.84268913     -0.10508932
C      -3.50339637     -1.23170930      1.12374652
C      -3.13499368     -2.64097616      1.57959950
C      -1.38658499     -0.46252481      0.20707662
C      -0.42602196     -0.49397965     -1.00844717
C      -0.36573354     -1.87979375     -1.64686099
O       0.91868329     -0.18669105     -0.57207376
C       1.19540316      1.12771271     -0.38833744
O       0.41416817      2.05214496     -0.54711264
C       2.60659176      1.30889244      0.04730832
C       3.48428799      0.23347777      0.22657999
C       4.80107533      0.46318390      0.64184913
C       5.27287255      1.76277540      0.84299030
N       6.54935157      1.97434035      1.37313134
C       4.37692869      2.82709786      0.71972360
C       3.05921536      2.60809837      0.30447232
H      -5.49410486     -0.56177402     -0.89207147
H      -5.12231983      0.64265637     -2.12536096
H      -4.44609558     -0.98645208     -2.25992673
H      -3.74671446      1.06284263     -0.06781179
H      -2.81295867      0.74262836     -1.52029525
H      -3.32600888     -0.51178908      1.93271282
H      -4.58482619     -1.24226713      0.95081548
H      -3.29799474     -3.36791655      0.77670914
H      -3.76433088     -2.93327413      2.42691869
H      -2.09386587     -2.71587832      1.90514532
H      -0.95822386     -1.14477897      0.95162271
H      -1.35890887      0.52284517      0.69075768
H      -0.72424419      0.22439271     -1.78050429
H       0.37597175     -1.89390900     -2.45313564
H      -1.33226901     -2.17710191     -2.06397150
H      -0.04949259     -2.63380611     -0.91749402
H       3.15852551     -0.79025196      0.06105623
H       5.45739047     -0.38769486      0.80694579
H       6.91924607      2.90434833      1.20213004
H       7.21895564      1.24631944      1.14437118
H       4.69647053      3.84131986      0.94552740
H       2.38603457      3.45643859      0.19669596
