43
O=C([O-])C1=Cc2ccccc2/C(=N/Nc2ccc3ccccc3c2S(=O)(=O)[O-])C1=O.[Ca+2]
O      -1.77571448      2.83310006      3.19140989
C      -2.94058706      2.40033976      2.96429622
O      -4.04304811      2.79167797      3.45532071
C      -3.05620462      1.39390424      1.84205721
C      -3.84863499      1.68693457      0.79808986
C      -3.99465996      0.78287788     -0.33999235
C      -4.98353625      1.01274539     -1.30433421
C      -5.08861428      0.18030545     -2.42249012
C      -4.19974857     -0.88090784     -2.59157264
C      -3.20775413     -1.11514887     -1.63967235
C      -3.11234487     -0.28859601     -0.51238700
C      -2.05784583     -0.51849684      0.50876057
N      -1.00859611     -1.20869816      0.16092029
N      -0.02971203     -1.43955890      1.09224238
C       1.18983193     -0.73879100      0.82070007
C       1.17133535      0.65403259      0.98921639
C       2.28490133      1.43752120      0.69867915
C       3.45966279      0.86129634      0.20867855
C       4.55551102      1.69160474     -0.08850028
C       5.74496287      1.16707055     -0.58644614
C       5.85026463     -0.19832104     -0.79499406
C       4.76770555     -1.03283572     -0.49984453
C       3.53790715     -0.54207779      0.01749874
C       2.38306080     -1.33527873      0.34983613
S       2.50165153     -3.14991555      0.18131112
O       1.24993232     -3.66122279      0.73921182
O       2.65246884     -3.33924299     -1.26054928
O       3.68119580     -3.48796305      0.97751055
C      -2.32602825      0.10880543      1.88016992
O      -2.07831776     -0.48733393      2.91750248
Ca      0.00000000      0.00000000      0.00000000
H      -4.40058422      2.62343311      0.79053765
H      -5.67500990      1.84402380     -1.19035947
H      -5.85934040      0.36641817     -3.16493148
H      -4.27078869     -1.52505459     -3.46341611
H      -2.50747748     -1.93841288     -1.77204601
H       0.22285563     -2.45241219      1.11174961
H       0.27771131      1.13772778      1.37872186
H       2.20958273      2.50946140      0.86392691
H       4.48226135      2.76504488      0.06952747
H       6.58021004      1.82209985     -0.80985089
H       6.76601291     -0.63154661     -1.18475186
H       4.89552212     -2.09860967     -0.68522686
