49
COc1ccc(OC)c(-c2c(F)ccc3c(N)c(C(=O)NC(C)C)nnc23)c1
C      -4.06892256      0.96711292     -3.69678258
O      -4.47121133     -0.28927049     -3.16569281
C      -4.03044491     -0.59906235     -1.90886910
C      -4.42183613     -1.85482431     -1.44697470
C      -4.04108826     -2.30449601     -0.17937894
C      -3.25849875     -1.49628023      0.64880112
O      -2.83433481     -1.84828698      1.90643638
C      -3.16808342     -3.15062940      2.36794950
C      -2.85862824     -0.22018161      0.19689030
C      -2.03589735      0.66691433      1.04178415
C      -2.66636403      1.51840845      1.95829593
F      -4.00507776      1.54152689      2.05009540
C      -1.94086613      2.36586177      2.77705527
C      -0.55326041      2.36234459      2.69508306
C       0.12903424      1.51013957      1.79466621
C       1.54622720      1.47600338      1.70044639
N       2.33922795      2.37002729      2.46907136
C       2.10002589      0.66053789      0.70630394
C       3.57944442      0.54460779      0.48640167
O       4.38410228      1.12500347      1.21040241
N       3.95497241     -0.26305965     -0.57215877
C       5.33289410     -0.38476048     -1.01730945
C       5.70706903      0.78354708     -1.92618747
C       5.53714010     -1.71551848     -1.73334640
N       1.34714199     -0.11975187     -0.09905109
N      -0.01316647     -0.11616445      0.04229871
C      -0.63287625      0.66662213      0.94705966
C      -3.25236386      0.21406216     -1.08603835
H      -4.46810495      1.79359791     -3.09963696
H      -4.48663881      1.05310321     -4.70460578
H      -2.97893283      1.02973374     -3.78184240
H      -5.03045320     -2.49398215     -2.08254591
H      -4.37480250     -3.28985816      0.12676138
H      -4.25241693     -3.26862299      2.46436433
H      -2.74003635     -3.92248787      1.71968875
H      -2.73122315     -3.27399012      3.36370977
H      -2.45910705      3.02221480      3.46911957
H      -0.00554701      3.04843783      3.33704618
H       2.05513616      2.44797435      3.43978139
H       3.34308708      2.15076230      2.39534797
H       3.20701858     -0.62604953     -1.15808595
H       5.97916651     -0.35745307     -0.13190996
H       5.59007061      1.74010817     -1.40533925
H       6.74832376      0.70446725     -2.25539644
H       5.06791475      0.81364522     -2.81577013
H       6.57974349     -1.83652691     -2.04508028
H       5.28049438     -2.55288310     -1.07534948
H       4.90307841     -1.78997596     -2.62380946
H      -2.93112989      1.19735171     -1.41537719
