6
[Au+].[C-]#N.[C-]#N.[K+]
Au      0.00000000      0.00000000      0.00000000
C       0.57955846      0.00000000      0.00000000
N      -0.57955846      0.00000000      0.00000000
C       0.57884115      0.00000000      0.00000000
N      -0.57884115      0.00000000      0.00000000
K       0.00000000      0.00000000      0.00000000
