38
CCOC(=O)[C@H](Cc1c[nH]c2ccccc12)N(C)C=O
C      -2.29776324      2.53443877     -1.26937319
C      -1.98073961      1.07452625     -1.52650361
O      -1.68812275      0.45463017     -0.26904413
C      -1.24436020     -0.83193099     -0.36460236
O      -1.14327561     -1.46080310     -1.41118413
C      -0.88436462     -1.37137052      1.02692709
C       0.64421205     -1.49208432      1.14478872
C       1.32683511     -0.16005531      1.24314022
C       1.53921023      0.56482892      2.39978071
N       2.17661883      1.72959145      2.06688986
C       2.38624999      1.78603267      0.70934420
C       2.98938303      2.78217423     -0.06801486
C       3.07067796      2.56834817     -1.44673667
C       2.57110793      1.40295864     -2.02161555
C       1.97308804      0.41621304     -1.22935200
C       1.87343889      0.60873063      0.16449535
N      -1.59462437     -2.64148379      1.30467284
C      -1.23472522     -3.85172057      0.57964323
C      -2.84543033     -2.59312439      1.89893814
O      -3.64461269     -3.51716371      1.96789866
H      -3.14774740      2.63035836     -0.58578823
H      -1.44769150      3.03419025     -0.79288118
H      -2.53416232      3.05265697     -2.20281963
H      -1.11607082      0.99913594     -2.19524552
H      -2.84467704      0.57966709     -1.98321721
H      -1.24138189     -0.64384560      1.76831130
H       0.89483512     -2.07531466      2.04089945
H       1.05937140     -2.04693882      0.29428452
H       1.29147583      0.35193573      3.43159514
H       2.45585630      2.44969147      2.71881142
H       3.38281493      3.69025337      0.37703715
H       3.53412327      3.32274223     -2.07860183
H       2.64637889      1.25420382     -3.09602515
H       1.58915180     -0.48755294     -1.69504664
H      -0.15211693     -3.99334551      0.59139631
H      -1.59583988     -3.78049439     -0.44930545
H      -1.69945571     -4.72659449      1.04470047
H      -3.06766744     -1.61348503      2.35405713
