27
CN[C@@H](Cc1ccc(O)cc1)C(=O)O
C      -2.70302258     -1.62659733     -0.54406500
N      -1.86038420     -0.50146886     -0.93201331
C      -1.51576530      0.35378876      0.23896320
C      -0.32442088      1.27316486     -0.08954849
C       1.01279182      0.57681055      0.02606643
C       1.50087157     -0.21011000     -1.02667826
C       2.73012490     -0.86356038     -0.91527676
C       3.47136416     -0.73071439      0.25384367
O       4.67597767     -1.35170033      0.40552737
C       3.00247513      0.04066783      1.30979096
C       1.77328711      0.69245812      1.19857684
C      -2.70597411      1.24381264      0.60725309
O      -3.62960150      1.56606312     -0.12549399
O      -2.65734507      1.69211850      1.87818544
H      -2.18449226     -2.28034902      0.16458356
H      -2.93627336     -2.22512523     -1.43017817
H      -3.64993188     -1.30011541     -0.10316614
H      -2.37672778      0.07711547     -1.60094360
H      -1.28070585     -0.28229926      1.10209751
H      -0.31911277      2.14570713      0.57798410
H      -0.42669979      1.69863631     -1.09765143
H       0.91626910     -0.32499335     -1.93748039
H       3.08437375     -1.46861160     -1.74330053
H       4.86542616     -1.85262961     -0.40447560
H       3.59104778      0.13305864      2.21784140
H       1.41524212      1.29018859      2.03352124
H      -3.46879396      2.23468424      1.97173657
