47
Cc1onc(-c2ccccc2Cl)c1C(=O)N[C@@H]1C(=O)N2[C@@H](C(=O)O)C(C)(C)S[C@H]12
C       4.46296228     -1.57618883      2.99590152
C       3.97933648     -1.62372156      1.60127390
O       4.88520480     -2.00399460      0.66796050
N       4.30031934     -1.98195928     -0.57702682
C       3.02974337     -1.59291308     -0.38901177
C       2.17078502     -1.40750830     -1.54993804
C       2.29279015     -0.22025845     -2.28821541
C       1.51783116     -0.01478739     -3.43118800
C       0.61339757     -0.99054723     -3.84553622
C       0.48212271     -2.17379596     -3.11793902
C       1.26178614     -2.38636098     -1.97709515
Cl      1.02781067     -3.86047295     -1.10440463
C       2.76503281     -1.36077920      0.99548406
C       1.58879470     -0.91008230      1.70894165
O       1.65793591     -0.35488633      2.80312506
N       0.37223888     -1.17143200      1.12369997
C      -0.89024369     -0.77906177      1.80224060
C      -2.18251326     -0.89933810      0.96294443
O      -2.65817972     -1.69863286      0.19135159
N      -2.57172314      0.36270043      1.30719137
C      -3.18350666      1.27132977      0.34388376
C      -4.08350723      2.28594046      1.05635291
O      -4.85837013      3.05455320      0.50515484
O      -3.95652069      2.32478203      2.39885151
C      -2.03585584      1.91072362     -0.47841316
C      -2.24092373      3.37906805     -0.87130261
C      -1.76707318      1.10267683     -1.75874945
S      -0.50375312      1.81997097      0.56674263
C      -1.25262824      0.73075466      1.84424836
H       4.51993295     -0.54067761      3.34491227
H       3.78878062     -2.12922245      3.65713410
H       5.45961346     -2.01960645      3.08686328
H       3.00523315      0.54509984     -1.98369838
H       1.62484411      0.90602811     -4.00037430
H       0.01053146     -0.83075245     -4.73660054
H      -0.22910097     -2.92798138     -3.44732934
H       0.32641041     -1.79186962      0.32550124
H      -0.98867319     -1.29060838      2.76848962
H      -3.84950370      0.67970673     -0.29726007
H      -4.59248075      3.01397922      2.68512605
H      -3.13815892      3.49395981     -1.49017002
H      -2.34506359      4.03422598      0.00098918
H      -1.39850425      3.76000096     -1.46195891
H      -0.94793538      1.53659377     -2.34378993
H      -2.65428969      1.09864797     -2.40282597
H      -1.51066745      0.05915377     -1.55281215
H      -1.30426162      1.16754333      2.84570486
