60
CN(C)CC1CC2C3CC=C4CC(O)CCC4(C)C3CCC2(C)C1=O
C      -5.67601171     -0.66646772      2.32840887
N      -4.80519583      0.35112536      1.73167479
C      -5.48812012      1.64757370      1.74271297
C      -4.42008233     -0.05420754      0.36644564
C      -3.33489949      0.82862246     -0.26411579
C      -2.02134204      0.90161516      0.51984447
C      -1.19143164     -0.30039261      0.03526813
C       0.28343562     -0.20518268      0.48814162
C       0.71792427     -1.47460602      1.23946062
C       2.18451190     -1.48738503      1.55252637
C       3.09173014     -0.66846829      0.98681304
C       4.54657237     -0.73572627      1.39529615
C       5.47310373     -0.89010396      0.18772230
O       6.83480318     -0.79673885      0.60048091
C       5.20939680      0.19673517     -0.84962106
C       3.74244862      0.21387026     -1.28065162
C       2.72888694      0.35279240     -0.10462691
C       2.82584038      1.77728493      0.48987855
C       1.28191279      0.05982832     -0.65979365
C       0.70829025      1.13478302     -1.58572757
C      -0.54474252      0.63696237     -2.30892875
C      -1.43925929     -0.31911276     -1.49083482
C      -1.38449308     -1.75016580     -2.03769441
C      -2.87811166      0.19159205     -1.55781748
O      -3.59438259      0.09767672     -2.54916052
H      -5.15978590     -1.63143767      2.38253326
H      -6.60396362     -0.80132515      1.76094245
H      -5.93615848     -0.39531830      3.35789181
H      -6.38405099      1.64873295      1.11149132
H      -5.78737968      1.91510870      2.76273862
H      -4.82258957      2.44800153      1.40466157
H      -4.05001460     -1.08825505      0.39664219
H      -5.30155726     -0.07472684     -0.28955645
H      -3.70428013      1.83711140     -0.47578339
H      -1.51207985      1.84398410      0.28302525
H      -2.16610673      0.88089570      1.60459943
H      -1.64682412     -1.19281029      0.48860379
H       0.35088922      0.62011329      1.20951750
H       0.15554200     -1.54443899      2.17853164
H       0.48125124     -2.37176192      0.65461327
H       2.49802174     -2.21176291      2.30183751
H       4.73064545     -1.56547794      2.08992866
H       4.81401229      0.16770169      1.95779406
H       5.33122678     -1.87585603     -0.27238301
H       7.00054810     -1.52522044      1.22321745
H       5.50859747      1.17608559     -0.45643321
H       5.84976243      0.02959935     -1.72474050
H       3.60711793      1.02924622     -2.00086487
H       3.54388211     -0.71713740     -1.82904622
H       2.64450564      2.54249023     -0.27232413
H       2.10474693      1.93361446      1.29846104
H       3.81558461      1.98573178      0.90932110
H       1.35783208     -0.86413304     -1.25244036
H       1.43825340      1.44559955     -2.34009682
H       0.45610155      2.03384600     -1.01103742
H      -1.10747083      1.51566840     -2.65079762
H      -0.22394388      0.13280704     -3.23053055
H      -1.64222159     -1.77782733     -3.10277050
H      -0.38968672     -2.19020109     -1.92165607
H      -2.10119169     -2.40055201     -1.52257096
