18
CC1=CCCN1C
C      -1.04197498      1.89731480     -0.03401896
C      -0.03593521      0.80267800     -0.13839655
C       1.28711712      0.95514539     -0.28956335
C       1.97055476     -0.38045705     -0.34242530
C       0.83154502     -1.37506458     -0.04381884
N      -0.37502310     -0.54340434     -0.09841089
C      -1.61160964     -1.08836293      0.42179929
H      -0.57197839      2.88308942     -0.11457078
H      -1.78329997      1.81402537     -0.83509186
H      -1.56139466      1.85237797      0.92843192
H       1.80293731      1.90048912     -0.36318658
H       2.76714850     -0.45757504      0.40351858
H       2.39795665     -0.55356866     -1.33534230
H       0.95628283     -1.81462757      0.95283955
H       0.79521157     -2.17903477     -0.78617948
H      -2.47798497     -0.56918040     -0.00042292
H      -1.64419819     -0.99564355      1.51220853
H      -1.70535466     -2.14820118      0.16262994
