32
NS(=O)(=O)c1ccccc1-c1nc2ccccc2c(=O)[nH]1
N      -0.78279858      1.19191241     -2.35701775
S      -1.29924141     -0.40576949     -2.46709341
O      -0.11975613     -1.23717566     -2.39418822
O      -2.20647342     -0.48174650     -3.58941499
C      -2.23118550     -0.66387540     -0.98348899
C      -3.60716532     -0.90927022     -1.08666314
C      -4.35127986     -1.20933964      0.05608229
C      -3.72750161     -1.27304734      1.30153088
C      -2.35731657     -1.03207317      1.40990860
C      -1.60611575     -0.73010724      0.26485617
C      -0.18094420     -0.41187047      0.45168869
N       0.26316938      0.77507639      0.18691654
C       1.63397802      1.01757080      0.39935725
C       2.14306329      2.28873410      0.12466424
C       3.50043862      2.56698699      0.31410929
C       4.36265331      1.57415290      0.78179523
C       3.86917950      0.30121449      1.06311100
C       2.51028518      0.03455267      0.87025801
C       1.94894941     -1.29578451      1.15970205
O       2.63322451     -2.21832114      1.58489169
N       0.60292469     -1.42999131      0.93272431
H      -1.05754778      1.61933561     -1.46745748
H       0.24197435      1.17730486     -2.36249511
H      -4.10821197     -0.88134730     -2.05351859
H      -5.41979675     -1.39889949     -0.02752259
H      -4.31266678     -1.50254100      2.18978517
H      -1.88815944     -1.05729795      2.39159559
H       1.47953736      3.06997780     -0.23676007
H       3.88496016      3.56082164      0.09610235
H       5.41813726      1.79259794      0.92703484
H       4.53600980     -0.47667169      1.42777444
H       0.22767623     -2.35510908      1.09173170
