32
OC(=S)CCCCCCCCC(O)=S
O      -5.21682082      0.42204844      0.65256234
C      -4.83276989      0.25669744     -0.62158847
S      -5.45595315      1.30070142     -1.74125800
C      -3.85552737     -0.84992323     -0.85716489
C      -2.43806935     -0.41172127     -0.48990510
C      -1.43483937     -1.54634888     -0.70494898
C       0.01811387     -1.12805354     -0.45705660
C       0.29947785     -0.75407644      1.00063622
C       1.78922479     -0.55383105      1.29736920
C       2.39956289      0.63992342      0.56080146
C       3.85355247      0.86163272      0.97655072
C       4.44947405      2.01480988      0.23481705
O       4.85080185      1.74704936     -1.01639701
S       4.63465068      3.56656448      0.77308179
H      -5.83846316      1.16872719      0.69258374
H      -4.15739822     -1.71186025     -0.24983270
H      -3.89819903     -1.16818691     -1.90552496
H      -2.15019287      0.45635593     -1.09568663
H      -2.42063427     -0.08506339      0.55627407
H      -1.51512152     -1.90441580     -1.73891450
H      -1.68939052     -2.39399069     -0.05711962
H       0.66791834     -1.96349465     -0.74527853
H       0.26633381     -0.28943958     -1.11741195
H      -0.07482897     -1.55130410      1.65454924
H      -0.24429721      0.15884137      1.26867710
H       2.34094320     -1.46727881      1.04399972
H       1.90483822     -0.40515008      2.37823441
H       1.81283251      1.54293711      0.76988535
H       2.35415972      0.47900591     -0.52250107
H       4.45172687     -0.03240002      0.76252542
H       3.92008147      1.03851838      2.05657715
H       5.20881311      2.56272566     -1.40635842
