34
CCN(CC)c1ccc2c(C)cc(=O)oc2c1
C       3.20597042      1.95751601      0.70989312
C       2.93530051      0.98591605     -0.43001665
N       2.12288668     -0.15085655      0.02663088
C       2.87470874     -1.32467051      0.49042166
C       3.10318715     -2.31100530     -0.64601780
C       0.73283397     -0.11283627      0.02376916
C      -0.05216955     -1.23694174      0.33903146
C      -1.45979405     -1.21248438      0.33947796
C      -2.15265222     -0.04753076      0.02139323
C      -3.61649080      0.05863799      0.00009960
C      -4.46480957     -1.13244603      0.33277669
C      -4.16144730      1.24080119     -0.32239245
C      -3.36901082      2.43484578     -0.65535461
O      -3.92109482      3.49091384     -0.94274474
O      -1.99251456      2.30050132     -0.62630250
C      -1.38963259      1.07063114     -0.29199209
C       0.01239420      1.04804850     -0.29405403
H       3.73201059      1.46183970      1.53250271
H       2.28009227      2.37730685      1.11440648
H       3.82927442      2.78618253      0.35962231
H       3.89861619      0.62139844     -0.80940985
H       2.47651374      1.49874216     -1.28274021
H       2.38571675     -1.81221948      1.34115855
H       3.85281415     -1.00813632      0.87497769
H       3.65847518     -1.84402853     -1.46620593
H       2.15980650     -2.68446444     -1.05550256
H       3.68190105     -3.16923508     -0.29046860
H       0.41127570     -2.18714165      0.58770037
H      -1.98372485     -2.12994938      0.59326253
H      -5.53400122     -0.89965441      0.27450912
H      -4.26452490     -1.48037574      1.35174961
H      -4.27391468     -1.95354883     -0.36638293
H      -5.23483284      1.38866679     -0.35718658
H       0.51683653      1.97557711     -0.54265905
