16
COP(C)(=O)OC
C       2.13478399     -1.35397929      0.03732818
O       1.60524016     -0.12892864     -0.42954199
P       0.22436970      0.36482770      0.24182180
C      -0.06972372      1.95089116     -0.50450999
O       0.22455728      0.34872310      1.73945317
O      -0.86596208     -0.61712595     -0.43003199
C      -2.16868214     -0.60577845      0.11901237
H       3.02144185     -1.60010054     -0.55222286
H       1.39982885     -2.15520398     -0.07773638
H       2.42318666     -1.26115163      1.08772355
H      -0.07001587      1.87379323     -1.59547445
H       0.70979266      2.66014330     -0.21244544
H      -1.03458659      2.35728618     -0.18956545
H      -2.14706222     -0.99557851      1.14011112
H      -2.81132660     -1.24637777     -0.49003905
H      -2.57584196      0.40856011      0.11611741
