26
O=c1oc(-c2ccccc2)nc2ccccc12
O       1.50164031     -3.09090271      0.11376603
C       1.19116748     -1.90525576      0.08804270
O      -0.10027208     -1.51112677     -0.00364649
C      -0.40187766     -0.19469260     -0.02918561
C      -1.87175462      0.00972471     -0.13272713
C      -2.77075398     -1.06515039     -0.19201339
C      -4.14481467     -0.82933441     -0.28895014
C      -4.62980093      0.47699979     -0.32728481
C      -3.74414865      1.55139594     -0.26893076
C      -2.37016026      1.31990573     -0.17200699
N       0.44017028      0.78466671      0.02643674
C       1.79016079      0.45986345      0.12199456
C       2.74099945      1.48029660      0.18508694
C       4.10190808      1.17679132      0.28133948
C       4.52009548     -0.15332571      0.31507990
C       3.57622908     -1.17769028      0.25248534
C       2.21618888     -0.85849524      0.15624545
H      -2.42153652     -2.09462183     -0.16409917
H      -4.83687878     -1.66695510     -0.33455379
H      -5.69938498      0.65776604     -0.40273079
H      -4.12176284      2.57053113     -0.29879157
H      -1.69230980      2.16999156     -0.12744360
H       2.41696119      2.51769315      0.15891846
H       4.83375924      1.97967400      0.32984195
H       5.57864593     -0.39103580      0.38994838
H       3.89752961     -2.21671352      0.27846533
