15
O=C(O)c1cc[n+]([O-])cc1
O       2.67539938      1.38284041     -0.20694469
C       2.10166209      0.31722429     -0.08742600
O       2.77523569     -0.84104717      0.00765339
C       0.63148071      0.12948177     -0.02960679
C      -0.18498221      1.25965034     -0.11810328
C      -1.57192538      1.11250598     -0.06648566
N      -2.16309011     -0.13177211      0.07095632
O      -3.42240013     -0.25067043      0.11638716
C      -1.34219591     -1.24378569      0.15756013
C       0.04864771     -1.13228262      0.10932003
H       3.71838398     -0.57558590     -0.04360784
H       0.24719245      2.25227676     -0.22668932
H      -2.28418542      1.92153647     -0.12640438
H      -1.88640102     -2.17026072      0.26269117
H       0.65717816     -2.03011139      0.18069976
