18
Clc1cccc2cccc(Cl)c12
Cl      1.24427180      2.96316355     -1.21724301
C       1.13739578      1.31551500     -0.68821691
C       2.34974285      0.61292221     -0.78045770
C       2.42548633     -0.71462222     -0.39508706
C       1.28702320     -1.34676319      0.08516877
C       0.06111940     -0.66961560      0.18857987
C      -1.03723645     -1.38982519      0.68554563
C      -2.28706004     -0.80193826      0.82220142
C      -2.45351479      0.52392610      0.46026706
C      -1.37330363      1.26899426     -0.03968029
Cl     -1.78009583      2.90712450     -0.43602027
C      -0.06379697      0.69893203     -0.19684858
H       3.24370234      1.10627390     -1.15664003
H       3.36539631     -1.25526602     -0.46782826
H       1.36759179     -2.39165971      0.38319781
H      -0.92710614     -2.43417317      0.97593922
H      -3.12525587     -1.37553429      1.20876790
H      -3.43436007      0.98254609      0.56835443
