16
O=C(O)c1cccc(O)c1
O      -2.37995685     -1.82174198      0.39681571
C      -2.06971243     -0.64466843      0.40588922
O      -2.97481736      0.31527801      0.66374894
C      -0.71321081     -0.10645721      0.14735342
C      -0.44057812      1.26816192      0.17734625
C       0.85388273      1.72911501     -0.07277105
C       1.87436196      0.82067618     -0.35225159
C       1.59822743     -0.54215950     -0.38072482
O       2.62812058     -1.39154253     -0.65841977
C       0.31412575     -1.01690438     -0.13373997
H      -3.80817587     -0.17894686      0.81199226
H      -1.22753145      1.98661012      0.39402877
H       1.06715580      2.79485964     -0.04992808
H       2.88341061      1.17397809     -0.54761067
H       2.29529070     -2.30454599     -0.64551931
H       0.09940733     -2.08171210     -0.15620930
