42
CC(=O)c1ccc(S(=O)(=O)NC(=O)NC2CCCCC2)cc1
C       6.60003182     -1.57733322     -1.07630594
C       6.00300505     -1.11181289      0.22597868
O       6.50831841     -1.42300463      1.30239579
C       4.77536613     -0.26045949      0.19659738
C       4.25263793      0.19927121      1.41486542
C       3.10820464      1.00040858      1.43939259
C       2.47263573      1.33058742      0.24108537
S       1.04439417      2.38677555      0.25932927
O       1.01732924      3.13229283      1.49678096
O       1.00917196      3.07459312     -1.01667187
N      -0.23012430      1.32653703      0.21508275
C      -0.53638835      0.40749509      1.20104581
O       0.15973366      0.22246045      2.18844048
N      -1.66361701     -0.33777275      1.02855442
C      -2.75570768     -0.13803247      0.08427252
C      -3.58943118     -1.41989938     -0.03405605
C      -4.77813717     -1.23536671     -0.97344530
C      -5.64457108     -0.05098083     -0.55637432
C      -4.82412710      1.22928733     -0.43297243
C      -3.63319976      1.04848155      0.50487700
C       2.99084885      0.89089959     -0.98123283
C       4.13916295      0.09178091     -1.00204504
H       5.89422278     -2.22094678     -1.60757863
H       7.50266328     -2.16088331     -0.86930796
H       6.88692520     -0.71990731     -1.69054283
H       4.73630594     -0.06341863      2.35498972
H       2.71457261      1.34946685      2.39299211
H      -0.77822759      1.40674869     -0.62790523
H      -1.84779619     -0.90777519      1.84632256
H      -2.31709714      0.07622943     -0.89740023
H      -2.96043525     -2.24228771     -0.39629997
H      -3.95390315     -1.72219793      0.95662897
H      -5.38354378     -2.14867622     -0.98567233
H      -4.41396846     -1.07947261     -1.99637557
H      -6.44751353      0.09443029     -1.28774280
H      -6.12405311     -0.27078313      0.40548057
H      -4.46396852      1.52910328     -1.42482688
H      -5.46185697      2.04139592     -0.06606896
H      -3.99689989      0.89589624      1.52958540
H      -3.04364493      1.97268025      0.52205766
H       2.51414270      1.17069774     -1.91855267
H       4.51853910     -0.23710523     -1.96537757
