12
CNNC
C      -1.82585745     -0.10388627     -0.30666073
N      -0.49003022      0.11539722      0.24852853
N       0.49003055     -0.11539484     -0.79687645
C       1.82585742      0.10388611     -0.24168632
H      -2.03276570      0.57807672     -1.13859394
H      -1.94847595     -1.13667800     -0.65031392
H      -2.57495752      0.07532221      0.47097834
H      -0.44437300      1.08617661      0.57502281
H       0.44437212     -1.08617412     -1.12337141
H       2.57495909     -0.07535121     -1.01931778
H       1.94848567      1.13668475      0.10194172
H       2.03275499     -0.57805917      0.59026495
