20
O=C1NC(=O)C2CC=CCC12
O      -2.74289014      1.47591015      0.71113202
C      -1.95333917      0.60003504      0.40076973
N      -2.05524058     -0.71106587      0.74200306
C      -1.05838740     -1.47147810      0.21590143
O      -0.85767495     -2.64561684      0.47171513
C      -0.33513760     -0.62376772     -0.80262382
C       1.13131033     -0.98000954     -1.00410932
C       2.09431837     -0.17388086     -0.19310897
C       1.74900035      0.88993627      0.53971646
C       0.35456108      1.41608325      0.64530018
C      -0.65150760      0.80225041     -0.33653502
H      -2.75913756     -1.06958665      1.36710121
H      -0.86439675     -0.81701920     -1.74794341
H       1.30440750     -2.04332768     -0.80241691
H       1.38928487     -0.81930234     -2.05875128
H       3.13675125     -0.48668515     -0.21688349
H       2.51585806      1.41333449      1.10816758
H       0.02965268      1.28786940      1.68619523
H       0.37950704      2.50022835      0.47607659
H      -0.80693981      1.45609256     -1.20170640
