18
COc1cnc2ncncc2n1
C      -3.18463986     -0.63993730     -0.32466379
O      -2.57547157      0.60169375     -0.66512639
C      -1.21718939      0.61808764     -0.44499893
C      -0.52855579      1.77784111     -0.74311196
N       0.81020895      1.90172522     -0.56447942
C       1.46908965      0.84439799     -0.07864160
N       2.78455499      0.95755019      0.09993491
C       3.42936152     -0.10725949      0.58609855
N       2.87203070     -1.27731594      0.90972347
C       1.53843474     -1.34871045      0.71327047
C       0.75418945     -0.33083965      0.22061340
N      -0.58778369     -0.46582086      0.04539407
H      -4.25542809     -0.55411922     -0.53333716
H      -3.06946076     -0.85861241      0.74265039
H      -2.78976115     -1.45685707     -0.93863411
H      -1.03630003      2.65056770     -1.13811849
H       4.50048683     -0.01147105      0.73020753
H       1.08623352     -2.30092018      0.97686801
