50
CC(C)(C)OOC(C)(C)C#CC(C)(C)OOC(C)(C)C
C      -6.34149586      1.05209823      0.15250875
C      -5.05701736      0.22306242      0.26598017
C      -5.32117761     -1.19290139     -0.25693316
C      -4.59845502      0.20104548      1.72768912
O      -4.08958456      0.89002889     -0.56245649
O      -2.84372952      0.12680025     -0.48522889
C      -1.75231120      1.04402624     -0.66816386
C      -1.75165045      2.11166159      0.43219933
C      -1.82824471      1.68262717     -2.05971242
C      -0.50381269      0.25414388     -0.56873546
C       0.51055303     -0.38690773     -0.48757415
C       1.75876703     -1.17701339     -0.38653218
C       1.74213396     -1.96233012      0.93019146
C       1.85119230     -2.11937818     -1.59220220
O       2.84939826     -0.24129009     -0.40611230
O       4.09480326     -1.00039438     -0.29015228
C       5.05403136     -0.15926253      0.37303833
C       4.57834729      0.20000590      1.78439159
C       5.32753914      1.09736926     -0.46006899
C       6.33807610     -0.99095408      0.46961794
H      -6.67550099      1.11316537     -0.88960857
H      -7.15313009      0.62710337      0.75149926
H      -6.17042603      2.08325451      0.48267237
H      -6.13724583     -1.67665601      0.29009962
H      -4.43287045     -1.82707340     -0.16267909
H      -5.57883242     -1.17222644     -1.32199262
H      -4.36140939      1.21272333      2.07641645
H      -3.68829530     -0.39505205      1.85346333
H      -5.36821137     -0.22046582      2.38276108
H      -1.74850754      1.64874863      1.42634928
H      -2.64613586      2.74231034      0.38207828
H      -0.87506427      2.76594484      0.35996342
H      -1.88872997      0.91399247     -2.83953554
H      -0.95285649      2.30895498     -2.26579499
H      -2.72162892      2.30771459     -2.16670082
H       1.72644639     -1.28271854      1.79069737
H       2.63616355     -2.58617343      1.03877193
H       0.86562730     -2.61695666      0.99918631
H       1.92060718     -1.55130200     -2.52770083
H       0.97846232     -2.77894600     -1.65793087
H       2.74589932     -2.74975983     -1.54196264
H       5.34260534      0.75953838      2.33405708
H       3.66956589      0.81085358      1.75805374
H       4.33227857     -0.70313028      2.35382086
H       4.43887106      1.73447684     -0.52702603
H       5.59936530      0.83108929     -1.48797787
H       6.13723736      1.69600763     -0.02885486
H       6.16132236     -1.91606996      1.03051202
H       6.68197772     -1.29461396     -0.52608279
H       7.14505249     -0.43717120      0.96077662
