14
N#Cc1cc(Br)c(O)c(Br)c1
N       3.94225303     -0.04013596     -0.51567456
C       2.79211125     -0.04948358     -0.36483068
C       1.37062050     -0.05589152     -0.17849877
C       0.68454663     -1.27011714     -0.06611649
C      -0.70144003     -1.27490236      0.11552596
Br     -1.58164955     -2.94868455      0.26185307
C      -1.40606566     -0.07011749      0.18548723
O      -2.76350141     -0.09247572      0.36371659
C      -0.71568761      1.14063762      0.07260107
Br     -1.63752914      2.79497730      0.16265278
C       0.66878658      1.15240096     -0.10896540
H       1.23017876     -2.21105062     -0.12014693
H      -3.08479838      0.82715565      0.38875493
H       1.20217502      2.09768740     -0.19635881
