23
COC(=O)c1cc(C(=O)O)cc([N+](=O)[O-])c1
C       3.99264048     -1.16440901     -0.44175671
O       2.57493806     -0.98499963     -0.43655046
C       2.16263454      0.12962402      0.21259550
O       2.88009959      0.94780297      0.76402892
C       0.67880020      0.24396265      0.17329622
C      -0.13009799     -0.70699142     -0.46572233
C      -1.52508689     -0.55971159     -0.47840755
C      -2.32974177     -1.59678333     -1.16959725
O      -1.88618742     -2.57766799     -1.73485373
O      -3.64795486     -1.34836142     -1.11501870
C      -2.11902249      0.54171556      0.14929465
C      -1.30810909      1.48984891      0.78674135
N      -1.92776426      2.64718661      1.44663610
O      -3.16248102      2.73588152      1.41002870
O      -1.17891730      3.46356486      1.99920766
C       0.08590829      1.34755933      0.80239786
H       4.36948945     -1.26673447      0.58072743
H       4.21519086     -2.08574323     -0.98700703
H       4.48230055     -0.33075033     -0.95479360
H       0.31665087     -1.57001880     -0.95892761
H      -4.05818412     -2.09579431     -1.60070023
H      -3.20195210      0.65525295      0.13896406
H       0.71684642      2.08556614      1.29855606
