24
NNC(=O)c1ccc(C(=O)NN)cc1
N      -5.01223873     -0.45227888      0.88391685
N      -3.63393389     -0.14204038      0.91777535
C      -2.85277716     -0.43725349     -0.19370766
O      -3.31540816     -0.90263609     -1.23224689
C      -1.38911927     -0.19716482     -0.06233619
C      -0.52040194     -0.94515859     -0.86955641
C       0.86369642     -0.75693775     -0.78943050
C       1.38910241      0.19722439      0.09022959
C       2.85276185      0.43727190      0.22164693
O       3.31537762      0.90259484      1.26021944
N       3.63394642      0.14206608     -0.88981640
N       5.01226750      0.45223339     -0.85588017
C       0.52038554      0.94522236      0.89744453
C      -0.86371043      0.75698986      0.81732545
H      -5.11435016     -1.28459633      0.28690605
H      -5.47312205      0.27926982      0.33297297
H      -3.20508525      0.01964383      1.82618273
H      -0.92203382     -1.68774685     -1.55826645
H       1.50828523     -1.38119562     -1.40217743
H       3.20512490     -0.01955094     -1.79824843
H       5.11440414      1.28443674     -0.25870834
H       5.47311055     -0.27945339     -0.30508954
H       0.92201787      1.68780963      1.58615447
H      -1.50829959      1.38125028      1.43007198
