38
CCCN(CCC)S(=O)(=O)c1ccc(C(=O)O)cc1
C      -2.96145893      2.55288358      0.55456155
C      -2.69029807      1.75196563     -0.70971245
C      -1.30660604      1.10031937     -0.73674293
N      -1.18382067      0.05143576      0.31224210
C      -1.22580729     -1.34810873     -0.19533403
C      -2.64490758     -1.78388852     -0.55505104
C      -3.58066003     -1.79369965      0.64531376
S      -0.06179248      0.35272914      1.56995701
O      -0.19231408     -0.69844143      2.55714623
O      -0.15519738      1.74621450      1.95009666
C       1.51747174      0.12800392      0.76589737
C       2.17805299      1.22913797      0.21211033
C       3.42646323      1.05347244     -0.39020671
C       4.02325607     -0.21487448     -0.42321714
C       5.34941183     -0.34937667     -1.07416245
O       5.97584206      0.54878788     -1.60460775
O       5.82482481     -1.60610014     -1.03370526
C       3.36688206     -1.30773399      0.15988801
C       2.11755673     -1.13593847      0.76257732
H      -2.20314930      3.32865960      0.69886088
H      -3.93687821      3.04506438      0.48487309
H      -2.97696414      1.90929376      1.43918742
H      -3.47770378      1.00159938     -0.82732371
H      -2.77032460      2.42754459     -1.56985249
H      -0.54388511      1.87593640     -0.62048775
H      -1.13516237      0.66180122     -1.72678486
H      -0.84263840     -2.04694689      0.55543979
H      -0.57547777     -1.44117768     -1.07294284
H      -3.06004760     -1.14741377     -1.34263844
H      -2.60143065     -2.79848700     -0.96921573
H      -3.70756576     -0.79115582      1.06455021
H      -3.19841534     -2.44959946      1.43403935
H      -4.56845871     -2.16080037      0.34926143
H       1.73717481      2.22313637      0.25309618
H       3.93838469      1.91108010     -0.82454612
H       6.69319808     -1.54466806     -1.48500878
H       3.82491871     -2.29460810      0.15930577
H       1.62752653     -1.98604677      1.23313602
