16
CC(O)C([N+](=O)[O-])[N+](=O)[O-]
C      -1.53698669     -0.12365210     -0.95598247
C      -0.54704683      0.53102247      0.01002139
O      -0.39721726      1.89035922     -0.43690048
C       0.81856013     -0.14830973      0.00015715
N       0.72903759     -1.58309044      0.36480353
O       1.37557678     -2.37613865     -0.33361458
O      -0.01543404     -1.91454251      1.29832613
N       1.71882624      0.41663363      1.04176258
O       2.91145120      0.55324051      0.73100027
O       1.24324757      0.71830685      2.14636990
H      -1.78597255     -1.14732269     -0.66338368
H      -2.46818747      0.45264726     -0.99610021
H      -1.13496526     -0.13752717     -1.97530764
H      -0.99441932      0.56155709      1.01079267
H      -1.23996105      2.35624285     -0.27452892
H       1.32349096     -0.04942660     -0.96741566
