22
NS(=O)(=O)c1ccc(S(N)(=O)=O)cc1
N       3.84321086     -0.35581260      0.61342780
S       3.02437899      0.69416689     -0.40754742
O       3.34622257      0.27708779     -1.75201715
O       3.30300130      2.02458502      0.07978641
C       1.33481182      0.29208664     -0.06383740
C       0.69054422     -0.69026675     -0.82453216
C      -0.64899070     -0.99000325     -0.57019602
C      -1.33481186     -0.29208698      0.43046259
S      -3.02437876     -0.69416768      0.77417336
N      -3.84321135      0.35581242     -0.24680048
O      -3.30300095     -2.02458557      0.28683868
O      -3.34622153     -0.27708966      2.11864381
C      -0.69054428      0.69026660      1.19115704
C       0.64899039      0.99000347      0.93682052
H       4.37904512      0.17496982      1.30085355
H       4.40821947     -1.00451105      0.06446738
H       1.22311911     -1.22391269     -1.60929420
H      -1.14930326     -1.76093299     -1.15296543
H      -4.37904603     -0.17496835     -0.93422648
H      -4.40821842      1.00451185      0.30216061
H      -1.22311926      1.22391291      1.97591828
H       1.14930257      1.76093416      1.51958852
