36
CCOC(=O)c1ncn2c1CN(C)C(=O)c1cc(F)ccc1-2
C      -6.08164304     -0.04777679     -0.54731460
C      -4.87455696      0.79191222     -0.17727115
O      -3.71868251     -0.05004027     -0.20563682
C      -2.54910175      0.58098631      0.10653424
O      -2.46696095      1.76991041      0.39851806
C      -1.39427227     -0.32161527      0.05740158
N      -1.49040605     -1.66650103     -0.25057497
C      -0.26468309     -2.13222422     -0.19565865
N       0.65499125     -1.15718768      0.11308709
C      -0.06985679     -0.00430070      0.32663506
C       0.56955510      1.23387080      0.80390739
N       1.43549581      1.69320496     -0.25368531
C       1.09018610      2.95528541     -0.88785297
C       2.63226609      1.07132436     -0.56672047
O       3.45499574      1.57320066     -1.33159798
C       2.96638191     -0.26140582      0.02748695
C       4.34117401     -0.49511173      0.21711298
C       4.79655844     -1.74293725      0.61928999
F       6.10811438     -1.94302734      0.79782493
C       3.91267457     -2.79023882      0.82589883
C       2.54526614     -2.58555751      0.63748849
C       2.05805417     -1.31915041      0.25287726
H      -6.99384865      0.55528876     -0.53910623
H      -6.20162468     -0.88035405      0.15378171
H      -5.95596953     -0.48567568     -1.54309044
H      -5.00685167      1.20556515      0.82874683
H      -4.75672242      1.60760395     -0.89940220
H       0.00931784     -3.15673181     -0.40987834
H       1.16854983      1.04287080      1.70254804
H      -0.14771607      2.01544839      1.06588227
H       1.19304398      3.75684418     -0.15044354
H       1.73717118      3.17291707     -1.74154254
H       0.05417923      2.90675611     -1.23637305
H       5.07111463      0.28928644      0.02734104
H       4.29335098     -3.75910005      1.13634292
H       1.88045505     -3.42333959      0.83744362
