21
COc1cc(C=O)cc([N+](=O)[O-])c1O
C      -3.10879957     -0.68385621      0.15105626
O      -1.85194925     -1.35513831      0.15342217
C      -0.73095008     -0.57018461      0.06037149
C      -0.71255543      0.82409225     -0.02570810
C       0.51124686      1.50872392     -0.10595330
C       0.52356005      2.98347158     -0.18888466
O      -0.51368442      3.63372671     -0.19609323
C       1.72139131      0.81499189     -0.10838699
C       1.68466724     -0.58080989     -0.03083693
N       2.94079051     -1.29760695     -0.04199029
O       3.72569108     -1.05354126      0.88543378
O       3.17115513     -2.03305428     -1.01035372
C       0.48057993     -1.27493305      0.06110967
O       0.45373289     -2.63774206      0.17620326
H      -3.26175615     -0.13776054     -0.78556797
H      -3.20250219     -0.02115652      1.01759640
H      -3.89243257     -1.44385463      0.22597738
H      -1.63070744      1.40617668     -0.02761903
H       1.51121753      3.47157071     -0.24455556
H       2.67239705      1.33880934     -0.16955779
H      -0.49109247     -2.89192477      0.20433715
