46
C#CC(OC(=O)C1C(C=C(C)C)C1(C)C)/C(C)=C/CC
C       2.82970811      2.14233069     -3.36740246
C       2.56304874      1.82887403     -2.23833305
C       2.23238332      1.45615029     -0.84767263
O       0.80879898      1.36506602     -0.72774565
C       0.31653402      1.67719733      0.49453785
O       0.94987596      2.08177459      1.45747138
C      -1.15435847      1.50604128      0.55414137
C      -1.84303394      0.34507958     -0.13548352
C      -3.10760522      0.58921684     -0.84377459
C      -4.11508795     -0.28507727     -1.03385500
C      -5.35687103      0.10458709     -1.78772174
C      -4.10151112     -1.69958641     -0.52447335
C      -1.77767549      0.39006173      1.38236041
C      -0.88557603     -0.62489783      2.05701286
C      -2.99807167      0.74413195      2.19821016
C       2.85204360      0.10368572     -0.50490804
C       2.30273283     -1.08392252     -1.25577217
C       3.81929017      0.01950944      0.43456514
C       4.50886727     -1.21345676      0.94613964
C       5.90866238     -1.34498960      0.36848063
H       3.06549466      2.41815986     -4.36917956
H       2.62587213      2.25078789     -0.20008548
H      -1.67024786      2.46123309      0.56697974
H      -1.20460030     -0.37312890     -0.64446674
H      -3.21569852      1.58738897     -1.26779837
H      -5.32253059      1.14203356     -2.13658324
H      -6.23809999     -0.00166755     -1.14657215
H      -5.48493310     -0.53757112     -2.66518515
H      -3.17234075     -1.95935964     -0.00939344
H      -4.22183231     -2.40130803     -1.35638559
H      -4.92508977     -1.85361406      0.18036404
H      -0.48494094     -0.21805010      2.99131582
H      -1.45499248     -1.53019671      2.29276966
H      -0.04019917     -0.92270951      1.42794522
H      -3.59148387      1.54423922      1.74344557
H      -2.69865847      1.08563830      3.19504032
H      -3.64360875     -0.13218659      2.31772990
H       1.26508187     -1.27232710     -0.96284845
H       2.32982922     -0.91044662     -2.33623565
H       2.86722305     -2.00271933     -1.08008276
H       4.14816684      0.93868281      0.92183637
H       4.57336244     -1.14253541      2.03866660
H       3.93628689     -2.12223266      0.74042163
H       6.40680003     -2.22791563      0.78162614
H       5.87756851     -1.45285358     -0.72104597
H       6.52141678     -0.46911735      0.60736373
