26
O=C(NC(CO)C(=O)O)c1ccccc1
O      -0.96813126      1.39094507      0.94702305
C      -0.20975821      0.56574006      0.44847994
N      -0.66836295     -0.55637054     -0.19840697
C      -2.09695321     -0.90866306     -0.25134424
C      -2.91458787      0.08177053     -1.09103358
O      -3.32367885      1.21585603     -0.32454847
C      -2.20308469     -2.31049316     -0.83895170
O      -1.27916621     -2.95302126     -1.32017665
O      -3.43616562     -2.84443528     -0.76100321
C       1.26651524      0.73730267      0.53894107
C       1.77910391      1.51737224      1.58371079
C       3.15630263      1.70744188      1.70945654
C       4.02639271      1.12696707      0.78781063
C       3.52213407      0.36238319     -0.26409327
C       2.14431063      0.16879555     -0.39362755
H      -0.01867275     -1.29513075     -0.44901553
H      -2.45185477     -0.93843468      0.78550799
H      -3.83111237     -0.37737071     -1.47446750
H      -2.34227621      0.44211172     -1.95300712
H      -2.53648504      1.52202327      0.18102342
H      -3.34917418     -3.74254070     -1.14529430
H       1.10597739      1.97782193      2.30451185
H       3.54843459      2.31124778      2.52420571
H       5.09893753      1.27839634      0.88448031
H       4.20343588     -0.07596736     -0.98963596
H       1.77791959     -0.40374784     -1.24054525
