44
CCOC(=O)c1cn2nc(OP(=S)(OCC)OCC)cc2nc1C
C       5.98110613      1.58018911      3.16509425
C       6.02673541      1.64485895      1.64985660
O       4.78129889      1.18453485      1.10056963
C       4.68546853     -0.15306298      0.87689738
O       5.56343705     -0.96740938      1.11531217
C       3.36375183     -0.50273077      0.30380966
C       2.33581736      0.36741039      0.32663811
N       1.09757428      0.02226235     -0.19037018
N      -0.02191113      0.78368407     -0.23355161
C      -0.91290044      0.00658885     -0.84161814
O      -2.12577626      0.54354681     -1.00849211
P      -3.35106232     -0.13017196     -1.81028197
S      -3.12985636     -0.42143080     -3.71383708
O      -3.66811704     -1.46802997     -0.95297390
C      -3.97629251     -1.36276940      0.42763469
C      -5.42740659     -1.74469845      0.64454338
O      -4.59938773      0.81554523     -1.39040536
C      -4.54371608      2.19465900     -1.71718326
C      -5.87616888      2.82258521     -1.35878358
C      -0.42073818     -1.25735178     -1.17711073
C       0.88536792     -1.24013533     -0.74344316
N       1.87018456     -2.18253717     -0.78999445
C       3.03661770     -1.84704690     -0.30724201
C       4.12288042     -2.89686766     -0.37723833
H       6.90608073      1.97088160      3.59876305
H       5.84024950      0.54992364      3.50970479
H       5.13631757      2.16352072      3.54802091
H       6.87350946      1.07528714      1.24956599
H       6.15592652      2.68369811      1.32574879
H       2.39114261      1.36768927      0.73804035
H      -3.32224029     -2.05370287      0.96968074
H      -3.78313453     -0.35340907      0.80897546
H      -5.61924117     -2.75799988      0.27431965
H      -5.68643926     -1.70239297      1.70625156
H      -6.09293221     -1.07268599      0.09289003
H      -3.73850099      2.67077968     -1.14673615
H      -4.34551971      2.32247531     -2.78548127
H      -6.08345256      2.69295695     -0.29092981
H      -6.68884603      2.33013120     -1.90523311
H      -5.88319281      3.89024145     -1.59532347
H      -0.91688638     -2.08582723     -1.66141678
H       4.38036787     -3.22571530      0.63294741
H       5.00476012     -2.49280227     -0.88244190
H       3.77512499     -3.76467176     -0.94743105
