43
C=C[C@@](C)(/C=C/c1ccc(O)cc1)CCC=C(C)C
C      -0.52878960     -3.89841008     -0.43842670
C      -0.08860651     -2.65169345     -0.66160017
C      -0.29029780     -1.41050059      0.20598239
C      -1.11115190     -1.68357114      1.48730346
C       1.09839973     -0.96994979      0.68352973
C       1.71280567      0.20716943      0.47107385
C       3.05747815      0.52677944      0.97211293
C       3.48100298      0.16290947      2.25752157
C       4.75607207      0.51193993      2.70934673
C       5.60636824      1.23413773      1.88198325
O       6.84127852      1.55375657      2.36272253
C       5.20191340      1.61902053      0.60863354
C       3.92516003      1.26918304      0.15863480
C      -1.01045552     -0.31908711     -0.64602985
C      -2.40697287     -0.69847080     -1.16180041
C      -2.98504761      0.40514323     -2.00855178
C      -3.90266001      1.32277757     -1.64611453
C      -4.50193729      1.44788367     -0.27245567
C      -4.40265386      2.34196633     -2.63626295
H      -0.30533675     -4.69328315     -1.14436798
H      -1.11014885     -4.16921451      0.43587513
H       0.49456285     -2.48668657     -1.56916792
H      -2.09506783     -2.11148412      1.26859982
H      -1.27478522     -0.75834831      2.05346130
H      -0.59873324     -2.38581660      2.15714207
H       1.63143220     -1.73447453      1.25150949
H       1.24111956      0.99323800     -0.11144607
H       2.82100644     -0.38622383      2.92420610
H       5.08037153      0.22470553      3.70533833
H       7.31983881      2.05099750      1.67963231
H       5.85686799      2.18720624     -0.04376098
H       3.61533343      1.57352259     -0.83868068
H      -1.10519177      0.59969511     -0.04957210
H      -0.38372123     -0.05970258     -1.51199392
H      -3.07797887     -0.94363422     -0.33483712
H      -2.35522036     -1.59890115     -1.78474010
H      -2.60692122      0.42379905     -3.03085755
H      -4.02979526      0.79725052      0.46735624
H      -5.56915747      1.20588830     -0.30398231
H      -4.39214147      2.47454983      0.09343815
H      -3.95255717      2.21558444     -3.62654646
H      -4.16757125      3.35404443     -2.29093117
H      -5.48811067      2.25630407     -2.75167666
