47
CN(C)C(CSS(=O)(=O)c1ccccc1)CSS(=O)(=O)c1ccccc1
C       0.11810371      0.21710592      2.81569871
N      -0.50301693      1.22201839      1.95052355
C      -0.28984477      2.56696128      2.47482473
C      -0.13510178      1.02923690      0.52339136
C       1.27353322      1.57497699      0.16389844
S       1.89591168      0.99520790     -1.44376520
S       2.77037229     -0.84121825     -0.94931451
O       2.18235860     -1.29993842      0.29324327
O       2.77189000     -1.66776183     -2.13862349
C       4.45812057     -0.39236592     -0.61328698
C       5.33627523     -0.18648953     -1.68242775
C       6.66287392      0.15619329     -1.42302290
C       7.10711313      0.28224779     -0.10552978
C       6.23000369      0.06077302      0.95803880
C       4.90133896     -0.28230527      0.70835101
C      -1.21205659      1.64786275     -0.41426601
S      -2.92908869      1.12826126     -0.07799170
S      -2.81217754     -0.93131324     -0.38483504
O      -1.94430939     -1.14963125     -1.52639301
O      -2.55510736     -1.57354863      0.88807710
C      -4.46806615     -1.35426516     -0.87180868
C      -4.78524814     -1.47498173     -2.22819855
C      -6.08351596     -1.82518185     -2.59915757
C      -7.05129731     -2.06038395     -1.62061020
C      -6.72561145     -1.95149541     -0.26736733
C      -5.43011331     -1.60202612      0.11278378
H      -0.26793753      0.30212674      3.83779889
H      -0.12675834     -0.79562429      2.47757327
H       1.20796657      0.31564560      2.85451485
H      -0.72676565      2.65601991      3.47608531
H       0.77190593      2.82535997      2.54978487
H      -0.78702342      3.32090888      1.85671726
H      -0.13906209     -0.04977836      0.32931396
H       1.24998766      2.66972827      0.12019442
H       2.01175153      1.30904800      0.92635978
H       4.99837762     -0.29579689     -2.71103161
H       7.35401660      0.31837578     -2.24701368
H       8.14387636      0.54480475      0.09309622
H       6.58659821      0.14826039      1.98180383
H       4.22897627     -0.46614638      1.54335380
H      -1.19105551      2.74102908     -0.34597095
H      -1.00080314      1.40002049     -1.45907998
H      -4.03456083     -1.30273214     -2.99634209
H      -6.34132107     -1.92048834     -3.65134059
H      -8.06169967     -2.33623996     -1.91368450
H      -7.48120322     -2.14452023      0.49048967
H      -5.17860595     -1.52794021      1.16886045
