20
C=Cc1ccc(S(=O)(=O)[O-])cc1.[Na+]
C       3.54222548     -0.20839821     -0.39123846
C       2.59163102     -0.41388427      0.52961837
C       1.15357359     -0.20764791      0.30382010
C       0.24045809     -1.03754433      0.97381679
C      -1.13620405     -0.85927443      0.81265797
C      -1.60388619      0.15815343     -0.02071162
S      -3.38894748      0.41562965     -0.20351259
O      -3.49062325      1.85322659     -0.44294276
O      -3.91790609     -0.03421355      1.08192448
O      -3.69675712     -0.43819060     -1.34658678
C      -0.71255836      1.00955013     -0.67593636
C       0.66321837      0.82531677     -0.51074913
Na      0.00000000      0.00000000      0.00000000
H       4.58474699     -0.39175053     -0.15428675
H       3.31112614      0.12580006     -1.39742044
H       2.87140495     -0.77718204      1.51541912
H       0.58925954     -1.83565879      1.62351172
H      -1.84584154     -1.50149383      1.32795305
H      -1.09579591      1.80998895     -1.30363445
H       1.34087581      1.50757291     -1.01537976
