47
CC(C)(C)n1cc(C(=O)O)c(=O)c2cc(F)c(N3CCNCC3)cc21
C      -3.74624763     -1.89426136     -0.68561201
C      -2.28234575     -1.47612755     -0.34688348
C      -1.87629287     -2.32826454      0.86891306
C      -1.49307201     -1.84236098     -1.62574576
N      -2.17641914      0.00966129     -0.01827767
C      -3.31788174      0.78006201      0.23888666
C      -3.41480382      2.11557803      0.29100612
C      -4.72776559      2.74505363      0.54552093
O      -5.74681065      2.10752138      0.77004564
O      -4.71936555      4.09532722      0.50931332
C      -2.17871083      2.87213712      0.06315125
O      -2.21414874      4.09796077     -0.02550560
C      -0.91204989      2.11520056     -0.00462402
C       0.27680008      2.85053617     -0.02857599
C       1.49028394      2.18319494     -0.02001482
F       2.60837802      2.92653467     -0.00160873
C       1.56532607      0.78162106      0.02417626
N       2.81181668      0.13124669      0.07555718
C       3.68843321      0.40970403     -1.09074887
C       5.13245958     -0.06822862     -0.81194252
N       5.21827716     -1.48651402     -0.41191688
C       4.33979176     -1.70836613      0.75162705
C       2.87544357     -1.28363811      0.49714018
C       0.33666813      0.08183153      0.05217424
C      -0.92849263      0.70170153     -0.00296584
H      -4.16735188     -1.27333205     -1.48491916
H      -3.79254349     -2.93695965     -1.02428018
H      -4.40651989     -1.83661131      0.18706461
H      -2.00179815     -3.39664329      0.65773174
H      -2.50029478     -2.08505615      1.73718473
H      -0.84096674     -2.18742525      1.18074417
H      -0.41095305     -1.85755530     -1.49894647
H      -1.72228296     -1.14216373     -2.43760703
H      -1.75213056     -2.84930990     -1.97552684
H      -4.22305959      0.20640108      0.41113562
H      -3.83504961      4.48573338      0.30122646
H       0.27268091      3.93668357     -0.03025820
H       3.73370132      1.47621010     -1.33248593
H       3.29342726     -0.10999565     -1.97385265
H       5.57605131      0.55507242     -0.02507983
H       5.73576758      0.07594068     -1.71483423
H       6.17995579     -1.69445921     -0.14496339
H       4.73624965     -1.15901614      1.61498230
H       4.36253126     -2.77288323      1.00889579
H       2.31532550     -1.42845997      1.42890511
H       2.44177909     -1.93150517     -0.27563199
H       0.39620967     -0.99177656      0.12507459
