16
CC1CCOC1
C      -1.87872766     -0.00464216     -0.19426705
C      -0.44772590      0.41060989      0.08831230
C       0.56429493     -0.14655394     -0.88903753
C       1.85505146     -0.00038530     -0.11061330
O       1.52164778     -0.14682354      1.27762813
C       0.09213229     -0.11121126      1.40855676
H      -2.20295347      0.36924316     -1.17086669
H      -1.98783218     -1.09440735     -0.19803050
H      -2.55496642      0.39901664      0.56626453
H      -0.37983665      1.50647176      0.08131634
H       0.58692750      0.38078728     -1.84677754
H       0.36761120     -1.20728191     -1.08728233
H       2.60202866     -0.74811519     -0.39140029
H       2.28937324      0.99586025     -0.24609367
H      -0.17958496      0.52843660      2.25343990
H      -0.24743982     -1.13100492      1.62102981
