20
CC(O)C(=O)NCCO
C      -2.92664973     -0.32749775      0.24042540
C      -1.74615693      0.61166915      0.05381061
O      -1.40218429      1.21270388      1.30369673
C      -0.52293123     -0.10110773     -0.54966481
O      -0.55430444     -1.22141552     -1.04603620
N       0.62031999      0.66985718     -0.49072998
C       1.89836895      0.20568460     -1.00074239
C       2.57192874     -0.78790604     -0.05449559
O       2.83251037     -0.16772558      1.20430543
H      -2.66959109     -1.15088548      0.91629493
H      -3.24830314     -0.75801586     -0.71302114
H      -3.77216449      0.20284370      0.69089620
H      -2.02727729      1.41759232     -0.63318118
H      -1.33232536      0.49246788      1.95591364
H       0.57098851      1.54381084      0.02545743
H       1.73961942     -0.25750668     -1.98000290
H       2.52346864      1.09584198     -1.12418507
H       1.94981767     -1.67117107      0.12056164
H       3.52827941     -1.11708379     -0.47140096
H       1.96658627      0.10784396      1.55209820
