36
CCCC(=O)OCn1cnc2c1c(=O)n(C)c(=O)n2C
C       4.38429217      2.11596662     -0.09381448
C       4.80058486      0.81278385      0.57430796
C       3.60589999     -0.06289199      0.94543745
C       2.92330279     -0.66728850     -0.25916945
O       3.43353772     -0.83559303     -1.35735711
O       1.65865494     -1.04398429      0.06833911
C       0.92928514     -1.53537035     -1.05180546
N      -0.44343870     -1.72653066     -0.62548173
C      -1.06751072     -2.93163679     -0.43442223
N      -2.32020470     -2.77545222     -0.05411728
C      -2.49147692     -1.42533088      0.00521896
C      -1.36006210     -0.75306663     -0.34279698
C      -1.26987433      0.66473676     -0.36428368
O      -0.24940685      1.26029238     -0.69619596
N      -2.46046636      1.28729342      0.02138213
C      -2.49822941      2.73656955      0.04058288
C      -3.65614616      0.62787305      0.37749194
O      -4.66591100      1.26799379      0.68556208
N      -3.64300698     -0.76757948      0.36321379
C      -4.83024185     -1.52184154      0.72184421
H       3.86320441      1.93381541     -1.03854954
H       5.26657206      2.72712091     -0.30901599
H       3.72216633      2.69583947      0.55716856
H       5.48583606      0.26879195     -0.08595419
H       5.35816326      1.05278463      1.48726395
H       2.87847247      0.53032254      1.51136510
H       3.94217436     -0.89160264      1.57829176
H       1.32721706     -2.50418354     -1.37328830
H       0.92253881     -0.82561368     -1.88682179
H      -0.57066077     -3.88244843     -0.58335939
H      -1.53012343      3.18528989     -0.19519411
H      -3.23716636      3.07989548     -0.69087288
H      -2.81213680      3.07433482      1.03374599
H      -5.12871130     -2.14356700     -0.12819937
H      -5.66513533     -0.86744196      0.98564896
H      -4.60199234     -2.16028091      1.58121347
