63
CC(C)(C)NC(=O)[C@H]1CC[C@H]2[C@@H]3CC[C@H]4NC(=O)C=C[C@]4(C)[C@H]3CC[C@]12C
C       4.87886124     -1.24055370      2.57861317
C       4.97080553     -0.73865592      1.12552027
C       5.15145664     -1.95975322      0.20902277
C       6.18283893      0.19757187      1.00748069
N       3.72395094     -0.02239007      0.81533288
C       3.42083569      0.53826488     -0.40879053
O       4.15467659      0.47754657     -1.38785479
C       2.06520307      1.24238427     -0.42603788
C       1.82531888      2.07588914     -1.71091372
C       0.32886278      1.95867080     -2.04155078
C      -0.26704823      1.30255612     -0.80311724
C      -1.65835353      0.66541243     -0.90374038
C      -2.69703555      1.66086187     -1.44643131
C      -4.11764157      1.09975390     -1.42045392
C      -4.46714460      0.61694598     -0.01588379
N      -5.85529184      0.21638146      0.10876393
C      -6.31952338     -0.27370681      1.30135126
O      -7.50993858     -0.29955954      1.58279170
C      -5.28834244     -0.77679123      2.24572890
C      -3.99733964     -0.89297404      1.88852601
C      -3.49997992     -0.49753732      0.50040194
C      -3.57130719     -1.77715434     -0.36764796
C      -2.05649922      0.11807327      0.50890613
C      -0.95794558     -0.81781532      1.07713411
C       0.45086719     -0.19620199      1.04621220
C       0.82831005      0.30682909     -0.35585405
C       1.00955422     -0.90139206     -1.31128345
H       5.78026417     -1.79061149      2.87102478
H       4.75365749     -0.40555692      3.27801529
H       4.01856410     -1.90710865      2.71166884
H       4.27159429     -2.61244617      0.24661235
H       5.30015223     -1.67239318     -0.83645406
H       6.02349514     -2.55242556      0.50814991
H       6.05694972      1.08474938      1.63878059
H       6.33057300      0.54726597     -0.01940135
H       7.10474903     -0.30781700      1.31664395
H       3.15045765      0.25733946      1.60005992
H       2.05373194      1.93859293      0.42537187
H       2.09720101      3.12205921     -1.52805171
H       2.41968402      1.73865421     -2.56645576
H       0.17968526      1.34172010     -2.93463583
H      -0.11101315      2.94114523     -2.24082820
H      -0.34066510      2.09882829     -0.04315405
H      -1.61411630     -0.16451930     -1.61649704
H      -2.44820549      1.94091381     -2.47666836
H      -2.66702629      2.58423254     -0.85359395
H      -4.22381997      0.29190965     -2.15331942
H      -4.81755495      1.88527075     -1.73159439
H      -4.37431619      1.48753298      0.65305392
H      -6.56971003      0.68913415     -0.43133206
H      -5.65182422     -1.09153663      3.21668901
H      -3.30426999     -1.33262583      2.59821584
H      -3.20669355     -1.61954355     -1.38574603
H      -4.59877439     -2.15011013     -0.45558604
H      -2.98086039     -2.59139480      0.06750316
H      -2.08682583      0.98446930      1.18905431
H      -1.18078837     -1.07128343      2.11893021
H      -0.94246884     -1.76454746      0.52818060
H       1.17169213     -0.94209220      1.39997872
H       0.48373726      0.63351359      1.76404764
H       0.09300626     -1.48321468     -1.43775882
H       1.33476566     -0.59878520     -2.31169123
H       1.76682221     -1.59197544     -0.92257653
