26
CCC(CC)(CC(=O)O)C(=O)O
C      -1.33081187      1.54182677     -1.35944650
C      -1.28399365      0.96289008      0.05001753
C      -0.21055550     -0.14323659      0.29868523
C      -0.69331015     -1.46232717     -0.37731469
C       0.22982783     -2.66855151     -0.22848349
C       1.19018043      0.25270914     -0.23211691
C       1.74024155      1.53715634      0.33896506
O       1.23517593      2.26645466      1.17305700
O       2.93761597      1.84483733     -0.19965423
C      -0.09329407     -0.40575382      1.80149317
O       0.93384315     -0.65475850      2.41348243
O      -1.27488938     -0.42069012      2.44710981
H      -2.16120753      2.25148499     -1.43947840
H      -0.41459757      2.08661494     -1.60356535
H      -1.48713696      0.76566347     -2.11314938
H      -1.15140481      1.79045788      0.75708833
H      -2.27998228      0.55775014      0.27550883
H      -0.84380055     -1.29461428     -1.45020078
H      -1.67300726     -1.74289335      0.03156317
H       1.18610756     -2.51039909     -0.73472524
H       0.42268231     -2.90608336      0.82136534
H      -0.23688530     -3.54801013     -0.68503191
H       1.16419194      0.34968651     -1.32365741
H       1.92534968     -0.52320072      0.01364495
H       3.20051867      2.66847320      0.26248487
H      -1.03085813     -0.59548682      3.38027651
