40
C1=CC(c2ccc(C3CC=CCC3)cc2)CCC1
C      -4.64140756      0.11007854      1.51354208
C      -3.49143517      0.76310733      1.28488847
C      -2.85599126      0.87532920     -0.08405633
C      -1.34663190      0.69309644     -0.04005546
C      -0.50327624      1.68288715     -0.56184808
C       0.88568500      1.52540566     -0.53558790
C       1.46824710      0.37306957      0.00944180
C       2.98010106      0.22863187      0.03119821
C       3.53760758      0.28700538      1.46940682
C       4.98904916     -0.09673700      1.55153093
C       5.64459193     -0.70532003      0.55225570
C       4.99199203     -1.09928620     -0.74075708
C       3.46200737     -1.04467442     -0.68530948
C       0.62484616     -0.61643375      0.53213887
C      -0.76372508     -0.45953079      0.50613424
C      -3.49184987     -0.08817530     -1.10866099
C      -5.01342936     -0.11207456     -0.97637823
C      -5.44290110     -0.54487406      0.42733233
H      -5.03135360      0.04877257      2.52657197
H      -2.97507286      1.24085462      2.11499346
H      -3.06539613      1.90088001     -0.42056834
H      -0.92059198      2.58917507     -0.99516647
H       1.50987405      2.31551900     -0.94759544
H       3.40723262      1.08027830     -0.51933786
H       3.41454177      1.30496752      1.85993013
H       2.97734928     -0.37520203      2.14084112
H       5.51427862      0.14320850      2.47276256
H       6.70077549     -0.93757050      0.66628945
H       5.30227786     -2.11544555     -1.00957578
H       5.35806106     -0.43226629     -1.53031078
H       3.05974485     -1.09043845     -1.70495064
H       3.09413389     -1.93877602     -0.16507241
H       1.03901655     -1.52185316      0.96969585
H      -1.39116144     -1.24643832      0.92008576
H      -3.21333612      0.21648665     -2.12524224
H      -3.11233636     -1.11024237     -0.97802185
H      -5.41205789      0.88765574     -1.19155951
H      -5.44489233     -0.79218792     -1.71951297
H      -5.34068846     -1.63183279      0.52868355
H      -6.50387870     -0.30704960      0.56418378
