45
O=C1CCCCCCCCCCCCCCO1
O       1.32582321      2.75298828      1.40896349
C       1.31207220      3.10288124      0.23639962
C       0.21386670      3.93214357     -0.38903848
C      -1.17540509      3.38481687     -0.04034330
C      -1.40018534      1.96989725     -0.58655686
C      -2.78887005      1.41857002     -0.24032756
C      -2.96506146     -0.03475915     -0.70544318
C      -2.25313599     -1.04333170      0.20650440
C      -2.14869267     -2.42904949     -0.44639074
C      -1.26505677     -3.41029582      0.34122418
C       0.20760957     -3.46195649     -0.10635692
C       0.92823002     -2.12471715      0.03396122
C       2.41233041     -2.17534958     -0.34258992
C       3.14880295     -0.85651763     -0.03957689
C       2.44215719      0.36715144     -0.61839213
C       3.13522303      1.69199828     -0.31350586
O       2.24023115      2.75370184     -0.70098561
H       0.33693689      3.95173537     -1.47815217
H       0.32341933      4.96000897     -0.02722115
H      -1.30856510      3.38049347      1.04831342
H      -1.93452043      4.05922447     -0.45418360
H      -1.27123569      1.97387529     -1.67594236
H      -0.63694253      1.30470812     -0.17795266
H      -3.54545637      2.04028056     -0.73415643
H      -2.96947872      1.48830944      0.83880469
H      -4.03489963     -0.27600307     -0.72219335
H      -2.60314079     -0.12951252     -1.73608991
H      -1.26301385     -0.67257783      0.47300505
H      -2.80661016     -1.12785253      1.15026412
H      -3.16179859     -2.84584627     -0.50781321
H      -1.78304711     -2.34604720     -1.47667898
H      -1.32191117     -3.19671202      1.41535377
H      -1.67561084     -4.41890562      0.20451019
H       0.25791443     -3.79774074     -1.14927047
H       0.72521094     -4.21891125      0.49495340
H       0.43662632     -1.41142573     -0.63376758
H       0.82538995     -1.76113321      1.06323947
H       2.90875918     -2.98648768      0.20289064
H       2.50583929     -2.40479760     -1.41108813
H       3.23412545     -0.74164563      1.04813432
H       4.16973828     -0.91895036     -0.43423636
H       1.42867260      0.42405186     -0.21333545
H       2.32530348      0.26117659     -1.70425263
H       3.42135985      1.77978078      0.74073005
H       4.04699591      1.79273256     -0.91105102
