27
OCCOCCOc1ccccc1
O      -3.74402928      1.79324809      0.88315254
C      -4.32814842      0.49171254      0.85829755
C      -3.60797396     -0.37439833     -0.16930504
O      -2.23521551     -0.47504586      0.22777461
C      -1.46884627     -1.24205688     -0.70780209
C      -0.00234054     -1.25243036     -0.27589642
O       0.56008932      0.03546922     -0.54577923
C       1.87710390      0.21937825     -0.22721268
C       2.37363143      1.49363031     -0.51499611
C       3.70357215      1.81822174     -0.24236922
C       4.54783574      0.86572768      0.32239551
C       4.05997449     -0.40720046      0.61326477
C       2.72707379     -0.73131129      0.33963928
H      -2.77842994      1.63917641      0.91459269
H      -5.38854958      0.59287358      0.61186930
H      -4.23231813      0.06760822      1.86268921
H      -4.05695264     -1.37217042     -0.20860515
H      -3.65867979      0.09766071     -1.15675504
H      -1.56592732     -0.79853246     -1.70523190
H      -1.85615431     -2.26656396     -0.71978511
H       0.53074372     -2.01263674     -0.85825186
H       0.06236073     -1.46859360      0.79693278
H       1.71646082      2.24022363     -0.95414503
H       4.07653652      2.81310545     -0.46990897
H       5.58358840      1.11506872      0.53721008
H       4.71796225     -1.15058238      1.05613575
H       2.38663242     -1.73158180      0.58339928
