29
CN(CCO)S(=O)(=O)C(F)(F)C(F)(F)C(F)(F)C(F)(F)F
C      -1.78818343     -1.45493564      1.61563753
N      -1.89493796     -0.42284403      0.56296502
C      -2.18828336      0.94062312      1.10022185
C      -3.32623390      1.61173636      0.32308963
O      -2.83501933      2.34814468     -0.79088963
S      -0.82666183     -0.56601559     -0.76632803
O      -1.22333644      0.46923961     -1.70258738
O      -0.87259990     -1.95760222     -1.16994760
C       0.82525926     -0.18343103     -0.06403700
F       0.89200330      1.11278167      0.35726879
F       1.06512096     -0.94491149      1.04474448
C       1.86816547     -0.45573105     -1.12095905
F       1.96685857     -1.79481006     -1.35168606
F       1.49496614      0.09542720     -2.31369136
C       3.23394450      0.09587870     -0.77163538
F       3.19164955      1.45982867     -0.72620541
F       4.09554467     -0.20216610     -1.79537253
C       3.79388291     -0.44828598      0.52799088
F       3.77819183     -1.79853185      0.56581993
F       3.09698741     -0.00750179      1.60067844
F       5.07603093     -0.05527660      0.72076736
H      -2.74438342     -1.53380821      2.14341381
H      -1.57667960     -2.44158111      1.19607627
H      -1.00934306     -1.19498023      2.33775705
H      -2.50322901      0.84417741      2.14634533
H      -1.28509038      1.55654884      1.09262923
H      -3.83141018      2.33343819      0.97267863
H      -4.07089600      0.88949128     -0.02676026
H      -2.40231770      1.70509721     -1.39523359
