15
CNS#CNCO
C       2.30732918     -0.46542828     -1.32195038
N       1.37988595     -1.21964656     -0.48957739
S       1.42023150     -1.04701967      1.15967370
C      -0.08723217     -0.30648540      1.34267349
N      -1.39985159      0.33317985      1.44652767
C      -1.76225558      0.86415674      0.15259915
O      -3.02186717      1.48895816      0.28108022
H       3.34591276     -0.74624279     -1.11792473
H       2.19354145      0.61275716     -1.16684581
H       2.10194970     -0.66951700     -2.37745617
H       1.45056863     -2.20772102     -0.73246575
H      -2.10132819     -0.36330361      1.69203736
H      -1.04591455      1.61683939     -0.19521687
H      -1.84701531      0.08055294     -0.60824420
H      -2.93395460      2.02892009      1.08504231
