38
CCN1CC(C)n2c(nc3ccccc3c2=O)C1C
C      -4.68029417     -0.04293084     -0.19163567
C      -3.43607343     -0.92570639     -0.18517396
N      -2.19589392     -0.16083553      0.04752968
C      -1.84728991      0.65594705     -1.11961584
C      -0.61327035      1.51350534     -0.81694782
C      -0.86727742      2.51870051      0.31349097
N       0.53260004      0.66357415     -0.51128450
C       0.35093031     -0.55162254      0.11793527
N       1.34105340     -1.33365639      0.42853340
C       2.64832932     -0.92258178      0.15283293
C       3.70761521     -1.76657506      0.49494005
C       5.02973669     -1.39046827      0.24021620
C       5.30334235     -0.16199934     -0.36050773
C       4.25437439      0.68873835     -0.70627597
C       2.93485170      0.29934585     -0.44635667
C       1.79915562      1.16514144     -0.79662929
O       2.00847067      2.26086865     -1.31209052
C      -1.08055833     -1.06817204      0.43345060
C      -1.16061848     -1.33955112      1.94299418
H      -5.57887514     -0.66815665     -0.22573822
H      -4.71193440      0.61917149     -1.06150585
H      -4.73377870      0.56957023      0.71458825
H      -3.37765465     -1.49456641     -1.12179382
H      -3.58324281     -1.65975665      0.61491255
H      -2.66713361      1.33215550     -1.38437332
H      -1.65523242      0.01855965     -1.99334154
H      -0.38477146      2.08801577     -1.72402175
H      -1.73970784      3.14168569      0.09082977
H      -1.03603891      2.02177316      1.27463066
H      -0.00615669      3.18324547      0.44265142
H       3.49771281     -2.72395101      0.96526390
H       5.84412397     -2.05737338      0.51269596
H       6.33119654      0.13229017     -0.55825970
H       4.46208027      1.64809133     -1.17444316
H      -1.16894922     -2.01862622     -0.11168274
H      -1.00947097     -0.41724072      2.51604711
H      -2.12317613     -1.76763174      2.23816446
H      -0.38817433     -2.04897772      2.25997072
