18
OCC(CBr)(CBr)CBr
O       1.42502908     -1.51701046     -0.90813424
C       1.34739626     -0.30511042     -0.16572759
C      -0.13363969      0.09853504      0.06157502
C      -0.77990709     -1.03652785      0.89714485
Br     -2.62268840     -0.68559636      1.43731037
C      -0.88603472      0.16139681     -1.29315943
Br     -0.14388522      1.44330679     -2.56855135
C      -0.19480403      1.47834085      0.75227475
Br      0.55727826      1.50894008      2.55338484
H       2.36870793     -1.68968776     -1.07945822
H       1.90335489      0.46684300     -0.70722430
H       1.86570114     -0.47604965      0.78347535
H      -0.82778873     -1.97576884      0.33538380
H      -0.23634706     -1.23743985      1.82507075
H      -1.92544505      0.48017333     -1.17141823
H      -0.88514369     -0.80118690     -1.81453537
H       0.38535597      2.23227955      0.21168895
H      -1.21713986      1.85456264      0.85090005
