17
CCCCO[N+](=O)[O-]
C      -2.74481463     -0.05727393     -0.24437741
C      -1.35161591     -0.63416331     -0.05087157
C      -0.27319609      0.42367467     -0.26817839
C       1.12854137     -0.15054528     -0.07500000
O       2.06421548      0.90124298     -0.29623291
N       3.40553618      0.47667608     -0.14185533
O       3.59454406     -0.70446730      0.15351751
O       4.21613775      1.38137436     -0.33193005
H      -3.50140283     -0.83173021     -0.08403944
H      -2.86967642      0.33480544     -1.25879135
H      -2.93489752      0.75523431      0.46417932
H      -1.27052671     -1.04621947      0.96168571
H      -1.20566967     -1.46431450     -0.75171920
H      -0.35541823      0.84819238     -1.27671342
H      -0.41976896      1.26302017      0.42329447
H       1.29201901     -0.96056303     -0.79645515
H       1.22599313     -0.53494337      0.94778675
