39
CC(=O)CC(c1ccc(Cl)cc1)c1c(O)oc2ccccc2c1=O
C       1.09291783      3.68235883      1.51764378
C       0.58655712      2.94731833      0.30686988
O      -0.46415151      3.27877348     -0.24044023
C       1.47642207      1.85247038     -0.24197142
C       0.69882911      0.78282365     -1.03924423
C       1.65973101     -0.29177297     -1.55641337
C       2.37599825     -1.12795461     -0.68590871
C       3.24848282     -2.09802890     -1.18887718
C       3.41135259     -2.24000809     -2.56283177
Cl      4.49253325     -3.43211048     -3.17434107
C       2.70368638     -1.42723686     -3.44266674
C       1.82900198     -0.46138189     -2.94101793
C      -0.53133748      0.16297412     -0.38489253
C      -1.64513167     -0.15461527     -1.07481184
O      -1.68358186      0.03939293     -2.44004414
O      -2.79879006     -0.68585894     -0.52982018
C      -2.85841350     -0.87735082      0.82300119
C      -4.05213821     -1.37411726      1.34960860
C      -4.17230671     -1.58827881      2.72445326
C      -3.10010414     -1.30743008      3.57151354
C      -1.90551004     -0.81319671      3.04306946
C      -1.79128310     -0.60014142      1.66520825
C      -0.54940511     -0.07409266      1.08135737
O       0.41536526      0.16181676      1.80058797
H       1.87141007      4.38668944      1.21677604
H       0.26897158      4.22623807      1.98628126
H       1.49311299      2.97323946      2.24674390
H       2.04460756      1.40758196      0.58372526
H       2.21963931      2.33588227     -0.89053911
H       0.33800862      1.33091237     -1.92222994
H       2.26214218     -1.03915882      0.39078928
H       3.79871742     -2.73426749     -0.49975881
H       2.82488342     -1.53778415     -4.51667531
H       1.27514744      0.16473613     -3.64118755
H      -2.57883624     -0.23821804     -2.69939489
H      -4.88967196     -1.59336247      0.69295211
H      -5.10276863     -1.97313568      3.13611303
H      -3.19356363     -1.47085294      4.64244546
H      -1.07052441     -0.59285283      3.70317623
