11
O=C([O-])c1ccc(Cl)o1
O       2.74151232      1.35574422      0.19107283
C       2.19746217      0.22905788     -0.01177886
O       2.78392601     -0.87529608     -0.23905609
C       0.61448569      0.18014245      0.01902996
C      -0.14188810     -0.96098230     -0.18120381
C      -1.49739078     -0.57602312     -0.07273042
C      -1.49667184      0.77657857      0.18736876
Cl     -2.88129896      1.77292072      0.41415343
O      -0.22157413      1.24437358      0.24493361
H       0.26983400     -1.94146635     -0.38022249
H      -2.36839640     -1.20504959     -0.17156692
