38
CC(C)(C)C(O)C(Oc1ccc(Cl)cc1)n1cncn1
C      -2.22421553     -0.27735570      2.09422570
C      -2.29298335     -0.72745823      0.62158858
C      -3.77812300     -0.97812627      0.27338195
C      -1.54486907     -2.06502490      0.48140922
C      -1.72884529      0.38911321     -0.32114195
O      -1.97428121      0.01922124     -1.69319088
C      -0.22706830      0.74227068     -0.13126086
O       0.56786713     -0.24980082     -0.80911848
C       1.85250271     -0.46502252     -0.39491567
C       2.45368067     -1.59846210     -0.95326504
C       3.76640586     -1.94530017     -0.62517681
C       4.48569378     -1.15074255      0.26174293
Cl      6.10206342     -1.57031177      0.67144584
C       3.90131098     -0.01453744      0.81619265
C       2.58497187      0.33072637      0.48700297
N       0.05642929      2.06134645     -0.69131134
C       0.16400827      2.42050643     -1.99936249
N       0.43920037      3.70205804     -2.08202033
C       0.48609046      4.09269983     -0.77530663
N       0.25969194      3.12565918      0.11866061
H      -2.70589054      0.69700776      2.23211190
H      -1.19302394     -0.19864759      2.45188599
H      -2.73402712     -0.99352768      2.74932400
H      -3.89493430     -1.37350715     -0.74153220
H      -4.36059947     -0.05259004      0.34373016
H      -4.22918294     -1.70512937      0.95873071
H      -2.01984861     -2.84403791      1.08963242
H      -0.50871128     -1.98586403      0.82362426
H      -1.53798371     -2.42076295     -0.55383123
H      -2.32466323      1.29470760     -0.14410376
H      -1.34003374     -0.68597747     -1.92257347
H       0.00904789      0.78671697      0.93650160
H       1.89733796     -2.22171975     -1.64978918
H       4.21815096     -2.83008158     -1.06547085
H       4.46533813      0.61377680      1.50142818
H       2.18306000      1.23648204      0.93110567
H       0.03502446      1.73142557     -2.82261368
H       0.69140848      5.11026982     -0.46774045
