13
Nc1[nH]c(=O)ncc1F
N      -2.03736619     -0.30438321     -0.34427346
C      -0.68418986     -0.14210650     -0.15764672
N      -0.17592282      1.11769116     -0.02638474
C       1.15571708      1.42187723      0.15638538
O       1.48852142      2.59984475      0.24065853
N       2.05563262      0.38629064      0.24031325
C       1.59431415     -0.81426192      0.11801218
C       0.18560575     -1.15801678     -0.09288384
F      -0.14620684     -2.45662949     -0.18912451
H      -2.59248874      0.36294787      0.18381161
H      -2.34757052     -1.26283394     -0.18769688
H      -0.78361319      1.91805717     -0.11726856
H       2.28756712     -1.66847698      0.17609776
