22
O=[N+]([O-])c1ccc(N2CC2)c([N+](=O)[O-])c1
O       3.86191441     -0.21183390     -2.07657604
N       3.42885110      0.59222161     -1.24007688
O       4.05052019      1.57608456     -0.81734150
C       2.07873308      0.36293496     -0.70978742
C       1.33346362     -0.73701359     -1.15614417
C       0.04227497     -0.96236668     -0.65363550
C      -0.53304962     -0.10329564      0.29879423
N      -1.82970067     -0.27121198      0.84777750
C      -2.34747476     -1.61746555      1.11213000
C      -2.92114407     -0.78256765      0.01253789
C       0.25434474      0.98733633      0.71610010
N      -0.27746524      1.91031176      1.69438691
O      -0.87560730      2.90324104      1.25907047
O      -0.02851406      1.66983597      2.88324263
C       1.54607216      1.24089131      0.23471705
H       1.73832944     -1.42968030     -1.89329856
H      -0.50196727     -1.82731859     -1.02644043
H      -2.88792358     -1.68086601      2.04768843
H      -1.69505729     -2.44607450      0.88083585
H      -3.85767420     -0.26955822      0.18891014
H      -2.68539761     -1.00479901     -1.01740269
H       2.10647194      2.10119406      0.59554923
