43
COC(=O)c1cc(CCc2cc(OC)ccc2OC)ccc1O
C       4.97244860      2.97893994      1.99903954
O       4.11992570      1.99517800      1.41074140
C       4.72308229      1.23805951      0.46274859
O       5.88624401      1.33811146      0.09501665
C       3.79367650      0.23261820     -0.11261871
C       2.46315035      0.12641763      0.32537433
C       1.60037003     -0.83235108     -0.22896720
C       0.16555348     -0.93250946      0.23134344
C      -0.77521242     -0.13005417     -0.67238391
C      -2.21233617     -0.21678735     -0.20377147
C      -2.74287622      0.83122669      0.57433486
C      -4.05725853      0.77993699      1.03612772
O      -4.68463201      1.72950383      1.79360827
C      -3.93421821      2.89225077      2.12016984
C      -4.84283720     -0.32805030      0.72222892
C      -4.32881654     -1.37821966     -0.04431072
C      -3.01370871     -1.33244654     -0.51062816
O      -2.41506295     -2.31075390     -1.26015704
C      -3.20324706     -3.44164433     -1.60854916
C       2.07801583     -1.68068939     -1.23592876
C       3.39780126     -1.58165824     -1.67649416
C       4.25042928     -0.63202474     -1.11800872
O       5.52770274     -0.60997934     -1.61461881
H       4.39151068      3.52778933      2.74534481
H       5.81925212      2.50106788      2.50156740
H       5.32018449      3.68735619      1.24062968
H       2.08671111      0.78824079      1.10245295
H      -0.12631416     -1.99017041      0.26082748
H       0.08843167     -0.57936395      1.26819623
H      -0.70742686     -0.47328189     -1.71291424
H      -0.46136895      0.92212927     -0.69959297
H      -2.10339590      1.67729553      0.80482208
H      -3.06282882      2.63985633      2.73337401
H      -3.63915154      3.43859203      1.21818117
H      -4.57790803      3.55021359      2.71193542
H      -5.86892655     -0.37654104      1.07925300
H      -4.98513591     -2.21557500     -0.25492825
H      -2.57983991     -4.10995067     -2.21036637
H      -3.51693172     -3.99373185     -0.71654818
H      -4.06422960     -3.15063991     -2.21926888
H       1.42201371     -2.42483366     -1.68424552
H       3.76277724     -2.24441002     -2.45698597
H       6.03438287      0.09088296     -1.14857076
