27
CCCC(=O)OCc1ccccc1
C       4.59897979      0.91976024      1.50623460
C       3.77087908     -0.09188210      0.73105323
C       2.30923094      0.33747077      0.63438939
C       1.47704126     -0.66165193     -0.13456367
O       1.89034152     -1.69866626     -0.63287218
O       0.18810956     -0.22864592     -0.18857795
C      -0.68520027     -1.10928221     -0.89916246
C      -2.06658038     -0.50824506     -0.87841420
C      -2.95313903     -0.79817031      0.16834485
C      -4.22659231     -0.22711211      0.19590094
C      -4.62278631      0.64471093     -0.81662356
C      -3.74508918      0.95034400     -1.85512600
C      -2.47118824      0.38038038     -1.88458743
H       5.64176924      0.59224058      1.56302398
H       4.22276655      1.03424354      2.52784486
H       4.57684914      1.90009177      1.01962309
H       3.84184787     -1.06997537      1.22186178
H       4.19303067     -0.21121922     -0.27400526
H       1.88453291      0.43375446      1.63992814
H       2.24056828      1.30437842      0.12338836
H      -0.69962341     -2.09682283     -0.42142705
H      -0.34424164     -1.22778367     -1.93520308
H      -2.65438681     -1.46959296      0.97033075
H      -4.90837209     -0.45981143      1.00973748
H      -5.61383052      1.09011956     -0.79358261
H      -4.05133951      1.63595572     -2.64090580
H      -1.79357712      0.63541101     -2.69640322
