27
CCCC(C)C(O)CC
C       3.78596937     -0.26060244     -0.91349027
C       2.61939283     -0.45716439      0.04342380
C       1.30945128      0.05514295     -0.56212824
C       0.06464851     -0.24510641      0.30655249
C       0.13809524      0.49833763      1.64624937
C      -1.22207560      0.08518830     -0.49425427
O      -1.27162399      1.47531311     -0.81117798
C      -2.51410166     -0.32813178      0.22478918
C      -3.73775288     -0.18244998     -0.67222872
H       3.92107828      0.79866105     -1.15443689
H       4.71275304     -0.62737278     -0.46124782
H       3.62455592     -0.80823641     -1.84749765
H       2.84321037      0.07165162      0.97556875
H       2.52812378     -1.52261898      0.28343396
H       1.17546923     -0.41539072     -1.54479497
H       1.39162225      1.13491822     -0.73958534
H       0.05264869     -1.32205013      0.52119698
H       0.23461232      1.57929296      1.50266022
H      -0.74965629      0.31270312      2.25748318
H       0.99521345      0.16180935      2.23756220
H      -1.17616279     -0.45142089     -1.44996590
H      -1.44657565      1.96625872      0.00919026
H      -2.43965036     -1.36970093      0.55711365
H      -2.67879227      0.29647761      1.10966271
H      -4.63732988     -0.50289551     -0.13712543
H      -3.64046519     -0.79981435     -1.57090847
H      -3.88265799      0.85720106     -0.98202749
