14
S=c1ncc2[nH]cnc2[nH]1
S      -3.66116714     -1.07760015      0.42110522
C      -2.13095346     -0.39100645      0.29993208
N      -1.89721322      0.95401456      0.56930302
C      -0.69957345      1.44153012      0.46289080
C       0.37422277      0.60393059      0.07158055
N       1.70743475      0.79384653     -0.12876935
C       2.21973875     -0.42684804     -0.50606180
N       1.28969789     -1.36216568     -0.55266358
C       0.16049349     -0.71145753     -0.19457952
N      -1.09265371     -1.22012927     -0.08290193
H      -0.52009858      2.50693926      0.67730328
H       2.23214637      1.65223665     -0.02571035
H       3.26945296     -0.56647665     -0.73093303
H      -1.25152741     -2.19681395     -0.28049540
