51
COCCNC(=O)c1ccc(Nc2ncc3cc(-c4ccncc4)ccc3n2)cc1F
C      -9.66529542      1.45639276      0.64014494
O      -8.68109074      0.43071240      0.64308438
C      -8.72721164     -0.34391046     -0.56117282
C      -7.64482723     -1.41947783     -0.50494786
N      -6.32003136     -0.83141805     -0.41412308
C      -5.19104482     -1.53202606     -0.77151116
O      -5.23982086     -2.62413161     -1.33016161
C      -3.87017152     -0.91900967     -0.45620848
C      -2.71006567     -1.58993275     -0.85852954
C      -1.44192494     -1.05472432     -0.58748554
C      -1.29356372      0.15888325      0.09095826
N      -0.05916821      0.74289785      0.38824747
C       1.26568650      0.38529169      0.15202668
N       1.59225888     -0.73806018     -0.49884075
C       2.90306065     -0.98760480     -0.67373493
C       3.91263350     -0.15621064     -0.22445450
C       5.28764053     -0.41723993     -0.40883224
C       6.25741865      0.46972292      0.07769607
C       7.69224390      0.20722051     -0.10725050
C       8.57099035      0.18764109      0.98233802
C       9.91536266     -0.06693519      0.75896169
N      10.44247465     -0.29783439     -0.46054350
C       9.58691283     -0.27376502     -1.50248719
C       8.22736036     -0.03189691     -1.37861194
C       5.80917971      1.61540790      0.74761811
C       4.43938517      1.86052267      0.92032750
C       3.47405487      0.98609115      0.44152469
N       2.17385156      1.25515290      0.62734842
C      -2.46313489      0.82167101      0.49009034
C      -3.72694074      0.28956100      0.22023046
F      -4.79667149      0.98253315      0.64128319
H     -10.66838605      1.02457362      0.57185471
H      -9.58684725      2.01137756      1.57877788
H      -9.49474752      2.14824541     -0.19026894
H      -8.56214443      0.31413742     -1.42229077
H      -9.71148424     -0.81660622     -0.65136734
H      -7.70031898     -2.06250762     -1.38922073
H      -7.77068662     -2.04247994      0.38730111
H      -6.23266831     -0.02530931      0.19849677
H      -2.78070685     -2.53828819     -1.38915238
H      -0.57578813     -1.61814727     -0.92342051
H      -0.06791831      1.61884708      0.89085131
H       3.12076862     -1.90967809     -1.20543658
H       5.59634446     -1.32557993     -0.92392832
H       8.21874527      0.35512790      1.99517587
H      10.62358808     -0.09409445      1.58227780
H      10.03585819     -0.45790402     -2.47445969
H       7.60328703     -0.01798999     -2.26637031
H       6.52242222      2.34165238      1.13406259
H       4.12212096      2.76126153      1.44138151
H      -2.41098964      1.76783771      1.02152733
