54
CCCCC(CC)COC(=O)OCC(CC)CCCC
C      -6.61099940      3.32936470      1.06652519
C      -6.43521049      1.84522094      0.78701885
C      -5.04416661      1.54103980      0.22808542
C      -4.87306047      0.04305227     -0.04670604
C      -3.53447559     -0.30623514     -0.72996355
C      -3.54439203     -1.75789086     -1.26444461
C      -3.61554372     -2.84176323     -0.19748497
C      -2.33005763     -0.02053303      0.18443351
O      -1.12203808     -0.38985852     -0.49165507
C       0.00241732     -0.22760402      0.24811516
O       0.05268821      0.19652347      1.39263256
O       1.06157392     -0.61710016     -0.50323482
C       2.32797592     -0.49026257      0.15349873
C       3.45077168     -0.91205154     -0.81090093
C       3.74339880      0.15032982     -1.89397899
C       2.61119749      0.36274118     -2.88912378
C       4.73808282     -1.27947325     -0.03781277
C       5.35389374     -0.14189314      0.78406113
C       6.60683816     -0.61438959      1.52450691
C       7.22688877      0.50728265      2.34256998
H      -6.48849932      3.91798902      0.15173428
H      -5.87918923      3.67962283      1.80144370
H      -7.61182608      3.52416073      1.46440189
H      -7.20257741      1.52093304      0.07451477
H      -6.59472643      1.28299305      1.71447782
H      -4.29027126      1.88160820      0.94618137
H      -4.89081208      2.10555559     -0.69945378
H      -5.69739521     -0.28950664     -0.69043049
H      -4.96778591     -0.50569759      0.89811690
H      -3.42882946      0.33258198     -1.61816763
H      -4.39750332     -1.88083575     -1.94359067
H      -2.64924275     -1.92787560     -1.87513956
H      -3.63383491     -3.82855635     -0.67191916
H      -4.52046180     -2.75094889      0.40978405
H      -2.74608439     -2.81188032      0.46532161
H      -2.27900687      1.04915457      0.41527944
H      -2.41764770     -0.58002478      1.12327374
H       2.47150990      0.54637128      0.48116806
H       2.32455040     -1.14818563      1.03101198
H       3.12324842     -1.82255443     -1.33199572
H       3.98319801      1.11407325     -1.43026247
H       4.63173499     -0.15746491     -2.45975150
H       1.75705427      0.86351381     -2.42530377
H       2.95249791      1.00032978     -3.71139974
H       2.27467596     -0.58700786     -3.31601470
H       5.48475370     -1.65023571     -0.75201648
H       4.51445439     -2.12113945      0.63074464
H       5.62060523      0.69473750      0.12912026
H       4.62683494      0.23297738      1.51303161
H       6.35398553     -1.44738149      2.19076548
H       7.34637344     -0.98606610      0.80572127
H       6.52317893      0.88040579      3.09350446
H       7.52121202      1.34415264      1.70120565
H       8.12004331      0.14770125      2.86302283
