7
C[N+](=O)[O-]
C      -0.65220700     -0.02935312      0.03165583
N       0.83161912      0.03660911     -0.04796722
O       1.33775621      1.15656745     -0.18573103
O       1.44765089     -1.03129649      0.04971798
H      -0.97596571     -0.99188843     -0.37015089
H      -0.92343270      0.07031529      1.08430037
H      -1.06542081      0.78904619     -0.56182504
