42
CCCC(C)(COC(N)=O)COC(=O)NC(C)C
C      -3.89791446     -2.93883894      0.80111511
C      -2.75973513     -2.06740391      0.28835428
C      -2.42865997     -0.94834561      1.28199807
C      -1.27502449      0.00847587      0.86105366
C      -1.15826772      1.09882913      1.95226156
C      -1.55506872      0.69757497     -0.49628705
O      -2.84297583      1.33184613     -0.47026952
C      -3.17721179      1.95385618     -1.62185490
N      -4.40042857      2.51354251     -1.50164752
O      -2.50129099      2.01857234     -2.63516494
C       0.06207123     -0.76499920      0.77016472
O       1.13694320      0.13847432      0.46913242
C       2.35668953     -0.44852490      0.39977514
O       2.57831025     -1.63749830      0.56602286
N       3.28560663      0.50079987      0.10026945
C       4.66263881      0.17524350     -0.22139306
C       4.78627881     -0.26054265     -1.67969144
C       5.56425272      1.37118295      0.06491046
H      -4.80786600     -2.34863882      0.94947203
H      -4.12152666     -3.73200558      0.08077383
H      -3.63347013     -3.40959949      1.75336227
H      -3.05378993     -1.64681755     -0.67867424
H      -1.88493887     -2.70313254      0.11955553
H      -2.17413914     -1.40458655      2.24851010
H      -3.34049754     -0.36251370      1.45970444
H      -0.89034437      0.65842234      2.91940669
H      -2.10418443      1.63589339      2.08471211
H      -0.39281349      1.84158403      1.70200084
H      -0.79221343      1.45946817     -0.70164912
H      -1.53175786     -0.03724254     -1.31028154
H      -4.79082902      3.01204477     -2.28640821
H      -4.91298612      2.42101357     -0.63903809
H       0.01523038     -1.52001206     -0.02299417
H       0.27013742     -1.26522405      1.72455111
H       2.90691675      1.40379070     -0.14985681
H       4.97144876     -0.66081907      0.41767637
H       4.16487108     -1.13974077     -1.88120793
H       5.82220936     -0.51732706     -1.92418748
H       4.46089937      0.53475792     -2.35961613
H       5.28469432      2.23637963     -0.54663454
H       6.61204452      1.13033131     -0.14220077
H       5.48669152      1.67172970      1.11554851
