48
CC(C)CCOC(=O)c1ccccc1C(=O)OCCC(C)C
C      -4.66457495      1.96339783      0.73908081
C      -3.55421928      2.22849260     -0.27837770
C      -4.16206342      2.74714054     -1.58379801
C      -2.70738359      0.97676969     -0.55863914
C      -1.94100074      0.46972498      0.66095834
O      -1.06041121     -0.59558708      0.26804226
C      -1.59077040     -1.84152422      0.31658913
O      -2.74797771     -2.13940744      0.55969845
C      -0.57070978     -2.81971659     -0.11141708
C      -0.96551723     -3.79621380     -1.03782396
C      -0.03806943     -4.72080022     -1.52206454
C       1.28467861     -4.68024727     -1.08169248
C       1.68102046     -3.72378028     -0.14511158
C       0.75153275     -2.79441672      0.34674118
C       1.16943879     -1.85545649      1.40315569
O       0.56778442     -1.69303757      2.44987679
O       2.29164910     -1.21667669      0.99452066
C       2.75012732     -0.20229082      1.89557356
C       3.82320331      0.63440496      1.20074543
C       3.36898521      1.28718179     -0.12041890
C       4.53938155      2.04580516     -0.75140433
C       2.18252211      2.23259491      0.07214572
H      -5.31040266      1.13977076      0.41660195
H      -5.29128004      2.85204175      0.86997903
H      -4.25347914      1.71079540      1.72118335
H      -2.90059020      3.01327138      0.12289283
H      -4.73996550      3.66086908     -1.40840646
H      -4.83005004      2.00482032     -2.03394850
H      -3.37827333      2.98387933     -2.31107855
H      -3.34079748      0.17240957     -0.95393720
H      -1.98342515      1.19414146     -1.35511183
H      -2.60664848      0.14320249      1.46728646
H      -1.30952007      1.26715625      1.06710529
H      -1.99566329     -3.83149607     -1.38908270
H      -0.34863684     -5.47321951     -2.24382426
H       2.00495564     -5.40292891     -1.45884722
H       2.70891902     -3.71607094      0.21177044
H       1.91905295      0.43501493      2.21890260
H       3.18295993     -0.68643182      2.77850759
H       4.67688798     -0.01974378      0.98031725
H       4.17993446      1.40363068      1.89662407
H       3.06729350      0.50023297     -0.82296326
H       5.38490550      1.37462125     -0.93431704
H       4.24710073      2.48222378     -1.71224711
H       4.88399147      2.85742721     -0.10152814
H       1.28877875      1.68919454      0.39279642
H       2.40405973      3.00044810      0.82090768
H       1.93226663      2.73838255     -0.86694470
