45
C/C=C\COCN(C(=O)CCl)c1c(CC)cccc1CC
C       5.78924263     -0.69026069      0.63594133
C       5.03141482     -0.44205785     -0.62768200
C       3.82547518      0.13366418     -0.76385088
C       2.92782434      0.66609535      0.30737132
O       1.65843353      0.04657730      0.13614450
C       0.70392777      0.56043811      1.05784103
N      -0.53079784     -0.19520021      0.92101448
C      -0.75724522     -1.28147592      1.75850983
O       0.05341665     -1.61358135      2.63119903
C      -2.06383949     -2.04629764      1.61859729
Cl     -3.21223531     -1.45205209      2.83792489
C      -1.41186655      0.19550587     -0.11794867
C      -1.35560196     -0.44723520     -1.37841088
C      -0.37969435     -1.56233371     -1.70169195
C      -1.06015694     -2.85290079     -2.14648614
C      -2.21965116     -0.00629628     -2.39583028
C      -3.13788617      1.01442110     -2.16772322
C      -3.20182453      1.62542602     -0.91994080
C      -2.33941267      1.23776826      0.11888021
C      -2.47028908      1.94918281      1.45020946
C      -2.00255771      3.39786641      1.39097419
H       5.29171377     -0.29968893      1.52585789
H       6.77462942     -0.21794839      0.57157684
H       5.93614728     -1.76603896      0.77350951
H       5.53232925     -0.78015452     -1.53429912
H       3.42470682      0.22924495     -1.77229810
H       2.82909816      1.75046338      0.18292527
H       3.30049381      0.45708480      1.31341551
H       1.08493901      0.47569829      2.08183267
H       0.51948009      1.61839602      0.84284168
H      -1.87308532     -3.10688275      1.80892156
H      -2.52760281     -1.96444493      0.63698127
H       0.24879295     -1.81031670     -0.84302465
H       0.30029598     -1.21169717     -2.48786192
H      -1.76006536     -3.21419680     -1.38620836
H      -1.61478000     -2.72213135     -3.08082262
H      -0.31007126     -3.63267134     -2.31453895
H      -2.17937357     -0.45788895     -3.38511757
H      -3.80396428      1.33476952     -2.96501949
H      -3.93319097      2.41535618     -0.75906960
H      -1.91406539      1.43289635      2.23852805
H      -3.52190066      1.91608077      1.76228335
H      -0.95801507      3.46783985      1.07190627
H      -2.08758505      3.86090854      2.37934873
H      -2.60560272      3.98806843      0.69328901
