25
C[N+](C)(C)CC(O)CCl.[Cl-]
C      -2.16766190     -1.07482382      0.08198813
N      -1.07276143     -0.01134098     -0.02866428
C      -1.28461103      0.77005154     -1.31648602
C      -1.21179936      0.93541612      1.16446427
C       0.29937196     -0.74337442     -0.02074743
C       1.53859418      0.17975927     -0.06542474
O       1.61146868      0.94178352      1.14549011
C       2.80584663     -0.67199664     -0.20941311
Cl      4.22812804      0.38875652     -0.37792070
Cl      0.00000000      0.00000000      0.00000000
H      -2.03255221     -1.61323974      1.02474763
H      -2.07263281     -1.75676346     -0.76822188
H      -3.14211412     -0.57750803      0.06287380
H      -0.56534272      1.59133760     -1.35870198
H      -2.30288788      1.17092195     -1.31455329
H      -1.14377632      0.08915730     -2.16072780
H      -0.91698375      0.39971660      2.07096070
H      -2.25951896      1.24535351      1.23331236
H      -0.59408433      1.81999797      0.99483156
H       0.31219894     -1.34308812      0.89764936
H       0.28989571     -1.41614690     -0.88637128
H       1.46655493      0.87979272     -0.90349868
H       2.47985464      1.39750900      1.15060522
H       2.76217318     -1.31238861     -1.09489241
H       2.97263991     -1.28888291      0.67870045
