42
C=CC(C)(CCC=C(C)C)OC(C)OCC
C      -0.82069494     -3.72209782      0.15542492
C      -0.39140813     -2.63193912     -0.49649875
C      -0.13310647     -1.23935649      0.06606875
C      -0.50914364     -1.07492553      1.54961003
C       1.38358880     -0.95906352     -0.12548339
C       1.81995774      0.45472895      0.28148517
C       3.28465281      0.67066846      0.00163269
C       3.83047870      1.35282944     -1.02410961
C       5.32435216      1.50598687     -1.13788317
C       3.05384743      2.00172822     -2.13686780
O      -0.81364421     -0.30318578     -0.78358903
C      -2.23430561     -0.23548521     -0.66755713
C      -2.74349159      0.32231256     -1.99200343
O      -2.59165383      0.65233794      0.38936007
C      -3.91102453      0.43892665      0.87991983
C      -4.14959635      1.39799876      2.02967991
H      -1.03561536     -3.72300816      1.21845121
H      -0.96045918     -4.65929344     -0.37587765
H      -0.19528505     -2.73069893     -1.56464751
H      -1.53539592     -1.40269706      1.74890389
H      -0.45965737     -0.02635057      1.86144279
H       0.15339878     -1.65815562      2.19889911
H       1.64085440     -1.09340759     -1.18657926
H       1.97276207     -1.69691980      0.43686166
H       1.67020324      0.60358907      1.35698674
H       1.20327835      1.20999115     -0.21432467
H       3.94907910      0.22479038      0.74154993
H       5.85590979      1.02792984     -0.30832830
H       5.59682371      2.56648838     -1.13953814
H       5.68293134      1.05250035     -2.06772854
H       3.15803636      3.09020958     -2.08329266
H       3.43651456      1.66648689     -3.10699744
H       1.98795093      1.76316149     -2.11934477
H      -2.65669563     -1.23437165     -0.50653819
H      -2.36474499      1.33822600     -2.15241520
H      -3.83552140      0.37286011     -2.01815957
H      -2.39936911     -0.29215275     -2.83040071
H      -4.01469927     -0.59251277      1.23413522
H      -4.64567677      0.62249512      0.09003907
H      -3.41486243      1.23578818      2.82536320
H      -5.15330870      1.26865550      2.44406340
H      -4.03525977      2.43493191      1.69682530
