27
CCCCCC(C)(C)O
C       4.08366431     -1.09370040      0.17788167
C       2.88614466     -0.29765137      0.67156763
C       1.61272545     -0.67421135     -0.08547026
C       0.40914954      0.12920883      0.41484335
C      -0.86496093     -0.24735811     -0.35253917
C      -2.14412514      0.45379715      0.15036806
C      -3.35876820     -0.05321892     -0.63406896
C      -2.05825226      1.97657524      0.03830103
O      -2.34888818      0.13714544      1.52877670
H       4.26698642     -0.90788099     -0.88522658
H       4.98307160     -0.80858988      0.73257826
H       3.92501589     -2.16786917      0.31690344
H       2.74996220     -0.48072895      1.74377602
H       3.09022717      0.77232961      0.54834550
H       1.75536538     -0.49271036     -1.15775006
H       1.41627390     -1.74624969      0.03772413
H       0.26986121     -0.05551808      1.48632833
H       0.61897851      1.19740606      0.29150574
H      -0.72152627     -0.03134316     -1.41895784
H      -1.00095048     -1.33349607     -0.26263361
H      -3.27782556      0.18390807     -1.69989788
H      -4.28498445      0.38808515     -0.24840812
H      -3.46810285     -1.13862147     -0.52792970
H      -1.29283352      2.38597386      0.70591541
H      -1.83875711      2.29349078     -0.98629843
H      -3.00186276      2.44162017      0.34736804
H      -2.40558855     -0.83039237      1.60871396
