14
O=C(O)C(Cl)(Cl)CCCl
O      -2.25260197     -1.23704448      0.09140823
C      -1.51337330     -0.34302332     -0.29199737
O      -1.92363768      0.94077970     -0.15040207
C      -0.12164025     -0.47660968     -0.92549817
Cl      0.36920218     -2.20267450     -0.93438869
Cl     -0.26946980      0.05258704     -2.64022382
C       0.93060333      0.38330445     -0.21490231
C       1.10984257      0.02492065      1.25721574
Cl      2.29199398      1.12341113      2.01219865
H      -2.83351731      0.87021771      0.21345415
H       0.65002708      1.44300170     -0.28718032
H       1.89678504      0.28682752     -0.72901147
H       0.17601396      0.12547981      1.81689526
H       1.48977216     -0.99117773      1.38986370
