68
CCCCCCCCCCCCCCCCCCCCCC(=O)[O-].[Li+]
C      -9.71192508     -0.77703137      0.72935516
C      -8.73218298     -1.10132213     -0.38795658
C      -7.78154067      0.06675296     -0.65170557
C      -6.84437553     -0.16823472     -1.83990649
C      -5.90835977     -1.37527146     -1.72013418
C      -5.00767737     -1.39807483     -0.48163961
C      -4.06266189     -0.19675548     -0.39506332
C      -3.11241987     -0.32862062      0.79810959
C      -2.22300149      0.90091762      1.01128705
C      -1.21237936      1.12117435     -0.11704991
C      -0.31075240      2.34052371      0.10411784
C       0.57709562      2.29888353      1.35227883
C       1.48823932      1.07458177      1.48062763
C       2.47630259      0.92759279      0.32066674
C       3.42794506     -0.24872086      0.55314619
C       4.36052094     -0.51963209     -0.63146589
C       5.29992998      0.62883161     -1.01264744
C       6.21943938      1.13109977      0.10500464
C       7.12439468      0.07428824      0.74572569
C       8.09016316     -0.58051602     -0.24425053
C       9.04374880     -1.53919258      0.46334081
C      10.04773949     -2.25338815     -0.44748174
O      10.81942595     -3.04999309      0.16136715
O       9.99578118     -1.97434435     -1.67641852
Li      0.00000000      0.00000000      0.00000000
H     -10.32681660      0.09154718      0.47274250
H      -9.18373521     -0.56096904      1.66361530
H     -10.38007171     -1.62597890      0.90507382
H      -9.29260269     -1.33922492     -1.29933739
H      -8.16749835     -1.99711866     -0.10851785
H      -7.19922044      0.28411889      0.25098002
H      -8.37194732      0.96800990     -0.85988912
H      -7.44912890     -0.29160923     -2.74736164
H      -6.24858112      0.73829638     -1.99965682
H      -5.27680358     -1.40928394     -2.61699034
H      -6.50096128     -2.29761311     -1.73707739
H      -4.41216299     -2.31926772     -0.51338159
H      -5.61800129     -1.45849784      0.42658982
H      -4.64010249      0.72862098     -0.29277843
H      -3.49008664     -0.12569434     -1.32614211
H      -3.70416334     -0.48279203      1.70922233
H      -2.48413045     -1.21934216      0.67569423
H      -2.84980500      1.79331445      1.12692866
H      -1.69064140      0.76230571      1.95898174
H      -0.60270667      0.22088638     -0.25289065
H      -1.74677081      1.27692583     -1.06114001
H      -0.93814442      3.23931844      0.15871406
H       0.32071558      2.47102197     -0.78293480
H       1.19801617      3.20378010      1.36082979
H      -0.05188004      2.36107159      2.24817157
H       0.88420011      0.16483343      1.57395735
H       2.05026847      1.16732607      2.41859873
H       1.93362869      0.76861326     -0.61765719
H       3.04648198      1.85728978      0.21637335
H       4.01374173     -0.07911522      1.46367927
H       2.83669891     -1.15572755      0.73227603
H       4.95231345     -1.41613258     -0.41195869
H       3.75178165     -0.77043150     -1.50946428
H       4.70733564      1.47528827     -1.38017749
H       5.90891956      0.30896530     -1.86674614
H       6.84773588      1.93335684     -0.30233714
H       5.61425758      1.59564651      0.89247229
H       7.70334405      0.56221237      1.54003896
H       6.51726831     -0.69473981      1.23664018
H       8.66524048      0.19530239     -0.76426577
H       7.52901752     -1.13052528     -1.00819466
H       8.46420222     -2.30998141      0.98658221
H       9.61734503     -0.99152943      1.22142971
