14
C=CC(=O)NCO
C       2.77199421      0.57565896      0.30123638
C       1.56428515      0.51697800     -0.27393301
C       0.40073031     -0.02643848      0.47199735
O       0.47270704     -0.40346219      1.63371389
N      -0.74255591     -0.06757677     -0.28197351
C      -1.89402169     -0.74625486      0.20587226
O      -2.96192573     -0.28389073     -0.58361625
H       3.62637607      0.97466971     -0.23439486
H       2.93387884      0.22826403      1.31860892
H       1.41617313      0.87034597     -1.28610949
H      -0.69285190      0.05985977     -1.28108686
H      -1.76612642     -1.82262389      0.06230499
H      -2.07500674     -0.53117405      1.26336182
H      -3.05365636      0.65564451     -0.35320644
