55
CNS(=O)(=O)Cc1ccc2[nH]cc(CCN(C)C)c2c1.O=C(O)CCC(=O)O
C      -4.57317673      0.40417067      2.85288317
N      -4.87933612      0.86183933      1.49752607
S      -3.57566096      1.23972498      0.48795082
O      -2.48837979      1.66189147      1.34343969
O      -4.14331712      2.11150359     -0.51870759
C      -3.22179696     -0.36772920     -0.23860519
C      -2.08350012     -0.23222733     -1.21659005
C      -2.33650815      0.07143807     -2.55999727
C      -1.29797556      0.20400019     -3.48729307
C       0.01041385      0.02477377     -3.02727518
N       1.20489898      0.10068435     -3.70399177
C       2.24835129     -0.14196041     -2.85235573
C       1.73427766     -0.37499688     -1.59143194
C       2.52204667     -0.67394312     -0.35148803
C       2.80008786      0.59391859      0.47875113
N       3.55293046      0.42253069      1.73488121
C       4.89803139     -0.10111499      1.52184098
C       2.82650089     -0.37094036      2.72095510
C       0.30960923     -0.27267845     -1.69903638
C      -0.75532725     -0.39953497     -0.78222385
O      -2.36871989     -1.65645584      0.64736335
C      -1.76856118     -0.71391716      0.15970035
O      -2.43353486      0.36917290     -0.28185668
C      -0.28962051     -0.63175175     -0.06768367
C       0.28933557      0.64871008      0.51174696
C       1.77151936      0.53956672      0.70396308
O       2.38337065      0.79331388      1.72750503
O       2.42445252      0.16618844     -0.41161856
H      -5.48692855      0.00818649      3.30553655
H      -4.22495678      1.23784014      3.46842652
H      -3.82768650     -0.39499584      2.84366012
H      -5.60663518      1.57507652      1.41654112
H      -4.12889793     -0.72341710     -0.73709549
H      -2.96335370     -1.06006958      0.56820015
H      -3.35934843      0.22261452     -2.90350430
H      -1.50771431      0.44616240     -4.52411222
H       1.29230840      0.31113268     -4.68832106
H       3.26833465     -0.12208897     -3.21271709
H       1.97166338     -1.41022343      0.24545871
H       3.46607727     -1.14977592     -0.64279382
H       3.34012302      1.31817250     -0.14644902
H       1.84817649      1.08888943      0.71463438
H       4.89658580     -1.13885531      1.17166596
H       5.44244270      0.51036873      0.79383833
H       5.47252652     -0.06169949      2.45422619
H       3.34536264     -0.34508900      3.68585976
H       1.82683757      0.04304855      2.89327496
H       2.72076748     -1.41971257      2.42379689
H      -0.53785406     -0.61584330      0.26064125
H      -3.37497655      0.16236714     -0.09999311
H      -0.09412241     -0.71080692     -1.14266341
H       0.16841385     -1.50654520      0.40983397
H      -0.15745263      0.85912574      1.49113055
H       0.08056823      1.51099427     -0.13085291
H       3.36932787      0.17003770     -0.14828257
