36
CCCCOC(=O)n1cnc2c1c(=O)n(C)c(=O)n2C
C       5.72914881     -0.46977664     -1.24578538
C       4.85883906     -0.64212017     -0.01124494
C       3.41077688     -0.24831162     -0.28853304
C       2.53520833     -0.42266478      0.94829222
O       1.17539327     -0.09047433      0.63318429
C       0.83239839      1.20363066      0.78530040
O       1.55032127      2.14031031      1.10119077
N      -0.50957745      1.41794654      0.45104730
C      -1.04333029      2.68226124      0.25395347
N      -2.28609983      2.65472300     -0.17425667
C      -2.59196024      1.33437558     -0.20742258
C      -1.55831328      0.54711863      0.21342500
C      -1.70408215     -0.86250961      0.36703671
O      -0.89690956     -1.58094045      0.94775225
N      -2.90991946     -1.35097295     -0.15267252
C      -3.12922989     -2.78346335     -0.08198734
C      -4.00416813     -0.56249010     -0.55265792
O      -5.08690551     -1.07369260     -0.85068277
N      -3.81007284      0.81692587     -0.57850753
C      -4.88738420      1.70472398     -0.98128959
H       5.37067928     -1.09600051     -2.06900703
H       6.76175194     -0.75753728     -1.02480281
H       5.73133446      0.57202754     -1.58193886
H       4.90442077     -1.68677562      0.31778764
H       5.26244293     -0.02768223      0.80192370
H       3.00255371     -0.85248603     -1.10839020
H       3.36301951      0.79237342     -0.63149875
H       2.90094604      0.17454140      1.79228426
H       2.54018941     -1.46993154      1.26940933
H      -0.45252537      3.57693181      0.41378985
H      -2.18388296     -3.33268046     -0.11950074
H      -3.75960349     -3.11963954     -0.91089616
H      -3.63577907     -3.00879819      0.86191835
H      -5.78224028      1.15223853     -1.27943069
H      -5.14343556      2.35765065     -0.14087712
H      -4.55400448      2.31116885     -1.82944066
