34
CCOP(=O)(SC(C)CC)N1CCSC1=O
C      -1.43577038      1.37162053     -3.53349725
C      -0.93347222      1.44213909     -2.10634595
O      -1.41021230      0.30571886     -1.40280307
P      -0.81519625      0.05741573      0.08892239
O      -0.80420233      1.34883268      0.85515743
S       1.09850615     -0.74857461     -0.13696405
C       2.07037661     -0.01168409      1.22062112
C       3.14937949     -1.00314315      1.64889935
C       2.64361159      1.36254594      0.83451793
C       3.66209145      1.36904977     -0.29985170
N      -1.89092735     -1.07837425      0.72800852
C      -3.24752086     -1.24018504      0.27782982
C      -3.81498700     -2.47958095      0.93467736
S      -3.03560867     -2.46240063      2.56322100
C      -1.65162361     -1.53666223      1.99400624
O      -0.65315835     -1.37557576      2.67127243
H      -1.08019763      0.45851353     -4.02229987
H      -1.09573680      2.23627144     -4.11027879
H      -2.53011086      1.33949255     -3.55628559
H       0.16047166      1.46068485     -2.09447202
H      -1.30911760      2.34825327     -1.62107130
H       1.39690892      0.13403507      2.07138393
H       3.81999847     -1.27481414      0.82667394
H       3.76142823     -0.57793844      2.45191770
H       2.70284199     -1.92607725      2.03668374
H       1.82565670      2.04473044      0.57263564
H       3.12346064      1.79747733      1.72079487
H       3.23660658      0.99034266     -1.23341328
H       4.00153072      2.39369702     -0.48534580
H       4.54429749      0.77217750     -0.05115878
H      -3.27430291     -1.32997227     -0.81188347
H      -3.80914472     -0.34399267      0.56780055
H      -3.49996422     -3.38416138      0.40487702
H      -4.90591264     -2.45986138      0.99576995
