39
CCCCCCCCCCCCS
C      -5.08955028      1.60256495      1.19576353
C      -5.12318574      0.08272437      1.16347834
C      -4.77809377     -0.50841902     -0.20549826
C      -3.39280006     -0.15270673     -0.75397852
C      -2.24449727     -0.62225666      0.14142061
C      -0.88678344     -0.34518371     -0.50815770
C       0.26339164     -0.80939402      0.38715357
C       1.62117665     -0.53284984     -0.26269613
C       2.76973163     -0.99421965      0.63710778
C       4.14904942     -0.84792580     -0.01212272
C       4.55410181      0.60797508     -0.26208625
C       5.98107776      0.68958641     -0.79965212
S       6.45920644      2.41687725     -1.09184150
H      -5.44301637      1.96539067      2.16629555
H      -4.07478271      1.98424775      1.04983423
H      -5.73502609      2.02668051      0.42020196
H      -6.13258448     -0.24880181      1.43600520
H      -4.45137052     -0.31502914      1.93184556
H      -5.53165046     -0.18045245     -0.93251653
H      -4.86589004     -1.60032692     -0.14379164
H      -3.29035482     -0.61985672     -1.74168369
H      -3.31927428      0.92863962     -0.91728375
H      -2.28895310     -0.10962989      1.10883159
H      -2.34579038     -1.69665033      0.33641379
H      -0.78752396      0.72892437     -0.70684435
H      -0.82970547     -0.85982921     -1.47503023
H       0.20764757     -0.29439928      1.35395274
H       0.16275010     -1.88327548      0.58620023
H       1.70893820      0.54061656     -0.46368446
H       1.67852098     -1.05112918     -1.22742356
H       2.62291894     -2.05154762      0.89061440
H       2.74703613     -0.43749815      1.58184769
H       4.17227844     -1.40619009     -0.95598990
H       4.88838380     -1.31617706      0.64968338
H       4.47283666      1.17109431      0.67604026
H       3.86416304      1.06369605     -0.98167453
H       6.68708183      0.25391078     -0.08552204
H       6.07012703      0.14089222     -1.74271105
H       5.53041515      2.67992782     -2.02292335
