34
Cn1nc(S(N)(=O)=O)sc1=NS(=O)(=O)c1ccc([N+](=O)[O-])cc1[N+](=O)[O-]
C       1.67605696     -1.20183529      2.18969628
N       2.25631258     -0.23376754      1.27657660
N       3.62780770     -0.14738100      1.24427409
C       3.97299730      0.60179746      0.23366874
S       5.68211610      0.94610548     -0.10643793
N       6.63371684      0.26192738      1.11644123
O       5.87147925      2.37481659      0.01887569
O       6.03535891      0.22399892     -1.30926725
S       2.66881504      1.23173808     -0.76647966
C       1.53410737      0.36683644      0.26168134
N       0.25404566      0.28780716      0.11877280
S      -0.51134440      0.98086597     -1.11102032
O      -0.11460007      0.39059910     -2.36988223
O      -0.48699812      2.41643208     -0.91408777
C      -2.21528073      0.50305384     -0.89786695
C      -3.21228043      1.45650620     -1.15662682
C      -4.56148290      1.13339871     -0.96960211
C      -4.91630537     -0.14610097     -0.51545481
N      -6.33329348     -0.48203531     -0.31757379
O      -6.60136923     -1.64021130      0.02978659
O      -7.16802013      0.41184691     -0.50887219
C      -3.93223237     -1.10673080     -0.24947549
C      -2.58555380     -0.76641253     -0.44946531
N      -1.60383606     -1.79192004     -0.17193301
O      -0.99235709     -2.26384448     -1.13403803
O      -1.48193623     -2.13656606      1.01025890
H       2.34100931     -1.38597961      3.04082038
H       0.72343534     -0.83859415      2.58874292
H       1.50511959     -2.15273520      1.67480236
H       7.23394573      0.98461581      1.51857522
H       7.16697021     -0.52133548      0.73387531
H      -2.94843168      2.45673704     -1.50336413
H      -5.31893141      1.88866720     -1.18042240
H      -4.19904038     -2.10230061      0.10428527
