34
CCCCN(CC)C(=O)SCCC
C       2.77528153      2.59016964     -0.35698660
C       1.90390667      1.50564005      0.25766518
C       2.66119651      0.18174692      0.37657690
C       1.85168259     -0.91781495      1.07342257
N       0.67192323     -1.33573116      0.31409999
C       0.89275220     -2.30256217     -0.76834187
C       0.78186698     -3.73997913     -0.28160667
C      -0.56637015     -0.83139469      0.71240064
O      -0.70395619     -0.04534164      1.64362914
S      -1.97211977     -1.37974978     -0.19344594
C      -3.17874370     -0.10354067      0.27250214
C      -2.89865435      1.21896319     -0.43865586
C      -3.93637604      2.26885413     -0.06876316
H       2.21488640      3.52704399     -0.43553532
H       3.10480257      2.30598043     -1.36147071
H       3.66256543      2.77574121      0.25667822
H       1.56828053      1.83403691      1.24798320
H       1.01201714      1.37754160     -0.36540530
H       3.58008456      0.34609107      0.95295132
H       2.96989831     -0.15127605     -0.62116401
H       1.55916951     -0.57527515      2.07251720
H       2.48572685     -1.79935730      1.22407499
H       1.88962811     -2.13468705     -1.19053900
H       0.18530469     -2.12943069     -1.58400029
H       0.95151415     -4.43428660     -1.11035833
H      -0.20601016     -3.94743262      0.14048797
H       1.52403304     -3.95060644      0.49514977
H      -3.19932818      0.02289920      1.35998719
H      -4.16745141     -0.47260247     -0.02177387
H      -1.90631892      1.60221455     -0.17501944
H      -2.91520429      1.07607484     -1.52596094
H      -3.72555118      3.20916742     -0.58774577
H      -4.94252689      1.94311944     -0.35146805
H      -3.92790976      2.46578401      1.00805979
