23
NCCc1ccc(O)c([N+](=O)[O-])c1
N       3.85554960      0.59772945      0.71091910
C       2.47096177      0.13179366      0.72178370
C       1.75654725      0.49595925     -0.58410202
C       0.32082158      0.02537563     -0.58725528
C      -0.00793310     -1.24785227     -1.07062933
C      -1.33237256     -1.69214120     -1.06036336
C      -2.34736436     -0.87481046     -0.56482500
O      -3.60285368     -1.41784169     -0.60627020
C      -2.03001814      0.39823052     -0.07380720
N      -3.06935193      1.28237188      0.45841012
O      -4.23996855      0.86742698      0.43598465
O      -2.72761671      2.38776704      0.90075115
C      -0.69792634      0.84743590     -0.08247188
H       4.30693401      0.33246292      1.58616667
H       4.37395100      0.12471205     -0.02867436
H       1.95272550      0.58609972      1.57396699
H       2.45733611     -0.95346345      0.87557894
H       2.28293158      0.05611890     -1.44136408
H       1.78159136      1.58228046     -0.74124447
H       0.76632247     -1.90543327     -1.46228799
H      -1.57373194     -2.68208165     -1.44171207
H      -4.25497817     -0.77721132     -0.25143518
H      -0.44155675      1.83507094      0.29972620
