16
NC(=S)c1ccccc1
N       2.62669134     -0.65003245      0.40247721
C       1.85821492     -0.09062247     -0.58673481
S       2.59900364      0.38654222     -2.00552175
C       0.40957793      0.04230441     -0.28826844
C      -0.28786264      1.21225642     -0.61518342
C      -1.64775552      1.32308759     -0.31671943
C      -2.31554047      0.26864910      0.30552603
C      -1.62779095     -0.90025649      0.62977723
C      -0.26780761     -1.01537047      0.33471801
H       3.62972960     -0.70141956      0.26508856
H       2.27051522     -0.84626633      1.32948474
H       0.21753241      2.04759859     -1.09366663
H      -2.18593615      2.23288357     -0.57145760
H      -3.37520437      0.35671759      0.53311731
H      -2.15303304     -1.72476921      1.10549725
H       0.24966568     -1.94130252      0.57186574
