26
Cn1cnc2c(=O)n(C)c(=O)n(C)c2c1=O
C      -3.97653721     -0.12920805     -0.46614052
N      -2.56531464     -0.44433239     -0.36246492
C      -2.12364033     -1.71632450     -0.57552146
N      -0.89143991     -2.07401604     -0.51606954
C       0.03726645     -1.10478466     -0.21006919
C       1.46812482     -1.54543932     -0.11262419
O       1.75927896     -2.74035262     -0.18957068
N       2.41603424     -0.55736852      0.06949843
C       3.80867132     -0.96342681      0.12309848
C       2.12066713      0.75920342      0.38061807
O       3.00446696      1.56228023      0.68462562
N       0.77499971      1.11181668      0.33877889
C       0.44371962      2.50225955      0.64069576
C      -0.22221512      0.19097863      0.02181163
C      -1.67791609      0.57672485     -0.07911090
O      -2.06413998      1.73458535      0.07387254
H      -4.30861239      0.34062294      0.46505125
H      -4.57423689     -1.02521971     -0.65425414
H      -4.12135571      0.58201400     -1.28553932
H      -2.90591008     -2.45510249     -0.81197616
H       4.46237520     -0.15889305     -0.22747535
H       4.05983211     -1.19564731      1.16302760
H       3.98766192     -1.84990649     -0.49256231
H       1.32420271      3.08848541      0.91905290
H       0.01043750      2.97290165     -0.24705811
H      -0.24642030      2.53814926      1.48917868
