34
CCOC(=O)C(C)(C)NC(=O)c1ccccc1
C       5.44159863      0.35763009      0.81066445
C       4.01065242      0.42595223      1.30697527
O       3.14232534      0.12477320      0.20805915
C       1.81501500      0.15382265      0.51346224
O       1.36154099      0.40565731      1.62767914
C       0.93334640     -0.18936853     -0.71080522
C       1.21631868     -1.63882997     -1.12049923
C       1.24913734      0.79137603     -1.84595311
N      -0.46057043     -0.02963111     -0.24654897
C      -1.57762459     -0.24571051     -1.01858669
O      -1.53678685     -0.59128837     -2.19319137
C      -2.89333906     -0.06923147     -0.34067253
C      -3.99415431     -0.78222545     -0.83346938
C      -5.24642636     -0.64836246     -0.23126893
C      -5.40684517      0.20477442      0.85963618
C      -4.31926393      0.93049785      1.34541820
C      -3.06385479      0.79916376      0.74598402
H       5.66421325     -0.63777775      0.41225686
H       5.60082731      1.07004759     -0.00556526
H       6.14551975      0.58106079      1.61714750
H       3.79652097      1.43293167      1.68212395
H       3.86106778     -0.30694449      2.10764083
H       0.99379124     -2.32881144     -0.29803881
H       2.26863697     -1.78142488     -1.39096051
H       0.61412915     -1.94628905     -1.98111665
H       1.06692698      1.82556624     -1.53093902
H       0.63582313      0.60376357     -2.73271833
H       2.29760026      0.72407567     -2.15725408
H      -0.56790230      0.10035533      0.75529565
H      -3.87642805     -1.44585014     -1.68802104
H      -6.09572176     -1.20710510     -0.61646047
H      -6.38323891      0.31097890      1.32628854
H      -4.45137555      1.60638093      2.18697869
H      -2.24145955      1.40004248      1.12326430
