10
C1COC1
C       0.00908350     -0.18213832      0.76597972
C      -0.97567532     -0.26034063     -0.39506370
O       0.00649966      0.25084654     -1.32450125
C       0.96874237      0.41327569     -0.25794618
H      -0.28174570      0.49278079      1.57446137
H       0.31531885     -1.14898072      1.17315973
H      -1.30051063     -1.26859454     -0.66631155
H      -1.84062620      0.40498384     -0.32175292
H       1.22253627      1.46617353     -0.10574315
H       1.87637719     -0.16800618     -0.44228206
