20
Cc1cc(C)nc(C(N)=O)n1
C      -0.26602930      2.73780933      0.13979858
C      -0.23490427      1.24102954      0.05557319
C      -1.41457630      0.52733170     -0.06606017
C      -1.31401495     -0.85095949     -0.13871732
C      -2.54703467     -1.69346826     -0.27141982
N      -0.13092925     -1.49013526     -0.09489956
C       0.96103650     -0.71169589      0.02448688
C       2.30988478     -1.39385516      0.07713516
N       3.39357196     -0.55309532      0.19955550
O       2.47146808     -2.60742703      0.01814611
N       0.97047538      0.64158238      0.10320237
H      -0.84180189      3.05554824      1.01462583
H       0.74646578      3.14390539      0.23230136
H      -0.72054413      3.15808155     -0.76274216
H      -2.37623721      1.02530602     -0.10292040
H      -2.29022241     -2.75683214     -0.31526293
H      -3.08477824     -1.43478151     -1.18887022
H      -3.20598072     -1.53732858      0.58835496
H       4.32047377     -0.95026864      0.23986997
H       3.25367709      0.44925313      0.24784266
