56
CC(C)C(C(=O)OC(C#N)c1cccc(Oc2ccccc2)c1)c1ccc(OC(F)F)cc1
C      -0.95274233      3.56190542      1.98331893
C      -2.22293983      2.81529426      1.54183105
C      -3.06798397      3.75931698      0.67347744
C      -1.87160380      1.50291280      0.78696048
C      -1.00917313      0.58563208      1.65453697
O      -1.23956060      0.29295114      2.82104921
O       0.03952242      0.10421161      0.93489365
C       0.86486996     -0.84400241      1.64205878
C       1.83813118     -0.15886945      2.52630045
N       2.60710901      0.38779360      3.20804022
C       1.53926512     -1.68740111      0.57056331
C       1.12443332     -3.01344898      0.35161499
C       1.71038298     -3.79034530     -0.65169988
C       2.72087267     -3.25571628     -1.44779770
C       3.15560478     -1.94896731     -1.22958891
O       4.15210601     -1.46830713     -2.04864211
C       5.23269016     -0.86799104     -1.43646600
C       5.84729692     -1.38901411     -0.29340783
C       6.94466900     -0.73379255      0.26583347
C       7.44011898      0.42799205     -0.32746603
C       6.84613778      0.93130302     -1.48555617
C       5.74512641      0.27981806     -2.04413703
C       2.54962917     -1.15696588     -0.24997173
C      -3.08793323      0.72639875      0.29859736
C      -3.22253608      0.40408185     -1.06029476
C      -4.32314074     -0.33080313     -1.51879709
C      -5.30857167     -0.75169445     -0.62482890
O      -6.42140507     -1.47893413     -0.93823126
C      -6.78296626     -1.52443546     -2.30837346
F      -5.93060431     -2.34408410     -2.96903695
F      -8.00784542     -2.10178372     -2.38357323
C      -5.17131238     -0.44810157      0.73034582
C      -4.07614830      0.28540791      1.19048553
H      -0.30912756      3.79308837      1.12503962
H      -0.36727430      2.97439901      2.69885635
H      -1.20848560      4.50502209      2.47618358
H      -2.79823781      2.58247684      2.44814296
H      -3.27860877      4.69045848      1.21007700
H      -2.54614088      4.01794027     -0.25662780
H      -4.03373195      3.31315407      0.40966589
H      -1.26549286      1.79105376     -0.08431366
H       0.23676863     -1.50817797      2.25074652
H       0.33443243     -3.45157452      0.95145463
H       1.37635915     -4.80827470     -0.81833199
H       3.17799515     -3.85720793     -2.22842888
H       5.47982291     -2.30100728      0.17030602
H       7.41470836     -1.12918322      1.16302364
H       8.29888861      0.93698388      0.10738330
H       7.24137017      1.82973624     -1.95266648
H       5.28365015      0.67081098     -2.94633245
H       2.87741057     -0.12734013     -0.12093199
H      -2.46473313      0.71123387     -1.78062551
H      -4.36335367     -0.57737286     -2.57666021
H      -6.82708005     -0.53804222     -2.78356409
H      -5.92241334     -0.78557168      1.43956915
H      -3.99822496      0.49703323      2.25567119
