43
CCCCCCCCCCCCOS(=O)(=O)[O-].[Na+]
C      -6.49503266      0.64336230     -0.81315247
C      -5.68694817     -0.63312639     -0.97908198
C      -4.30951092     -0.51460072     -0.32515452
C      -3.47182651     -1.77370178     -0.55879837
C      -2.18657702     -1.81705347      0.27278050
C      -1.23141850     -0.65506916     -0.00692613
C       0.07540495     -0.81498636      0.77358252
C       0.98849648      0.39850695      0.58487330
C       2.28574630      0.24537717      1.38084406
C       3.13829669      1.51739648      1.39555142
C       3.60717444      2.01708163      0.02401730
C       4.48033040      1.02964389     -0.74761797
O       5.60022970      0.68130753      0.04242666
S       6.85759809     -0.03440294     -0.70838196
O       6.24211808     -1.10372893     -1.49264514
O       7.43629989      1.04368207     -1.50506411
O       7.69139695     -0.49574450      0.39593497
Na      0.00000000      0.00000000      0.00000000
H      -6.00140165      1.48484431     -1.30865464
H      -7.48856872      0.52322031     -1.25624218
H      -6.62227027      0.89536369      0.24396099
H      -5.57782878     -0.85374348     -2.04666044
H      -6.23922574     -1.46760625     -0.53031926
H      -3.79083281      0.35420846     -0.74136525
H      -4.42981041     -0.33791790      0.74896352
H      -4.06824701     -2.66014507     -0.30918617
H      -3.22211758     -1.85135755     -1.62455100
H      -2.44665906     -1.82779900      1.33875866
H      -1.67474761     -2.76460836      0.06453331
H      -1.01453086     -0.60176517     -1.08064376
H      -1.70421474      0.29155403      0.27809670
H      -0.14841646     -0.94068713      1.83991210
H       0.59362995     -1.72302545      0.44231749
H       0.46232097      1.30347933      0.91207450
H       1.21370807      0.51992061     -0.48086275
H       2.86638654     -0.59779967      0.98839507
H       2.04114422     -0.00687839      2.42176679
H       2.56544118      2.32086040      1.87634436
H       4.01091886      1.34363675      2.03728498
H       4.18919216      2.93269760      0.19371391
H       2.74770692      2.30192670     -0.59174222
H       4.80306984      1.50130860     -1.68423788
H       3.91357479      0.12636884     -1.00017105
