61
c1cc(N(CC2CO2)CC2CO2)ccc1Cc1ccc(N(CC2CO2)CC2CO2)cc1
C       1.78095950      1.52863255      0.93748179
C       2.92871352      1.27085563      0.17148159
C       3.69277019      0.10105941      0.32706128
N       4.82039443     -0.16821010     -0.44584481
C       5.90555906     -1.01850972      0.07364723
C       6.75894656     -0.25242961      1.04167941
C       6.58028623     -0.36790422      2.53248854
O       7.62657695     -1.06892766      1.84817981
C       5.15602500      0.63084648     -1.63386363
C       4.20482502      0.35334633     -2.76096727
C       3.92796318     -1.05044456     -3.24235320
O       4.82335823     -0.18102396     -3.94514391
C       3.22547628     -0.80273884      1.29595592
C       2.08212131     -0.55645361      2.07042409
C       1.34624115      0.61518049      1.89877203
C       0.09204387      0.86857127      2.70186331
C      -1.18098192      0.57521774      1.94066588
C      -2.01779868      1.61671980      1.52136885
C      -3.18336861      1.34210907      0.80048142
C      -3.53729613      0.02655478      0.47529062
N      -4.71318524     -0.18239954     -0.28509613
C      -4.41411198     -0.68906440     -1.64209940
C      -3.73037311      0.36000144     -2.46643435
C      -4.48101656      1.57072845     -2.94847062
O      -4.19004959      0.47002533     -3.81974497
C      -5.69439996     -0.99163304      0.46433742
C      -7.07997137     -0.69353000     -0.02635196
C      -7.72570437      0.63737177      0.25179906
O      -8.07108668     -0.53834795      1.00070672
C      -2.70581122     -1.01473884      0.90581558
C      -1.54110913     -0.74410303      1.63088728
H       1.22815433      2.45028139      0.76614739
H       3.20906096      2.03256802     -0.54900416
H       6.54169980     -1.35293448     -0.75612071
H       5.52908610     -1.94969966      0.51129890
H       7.17373619      0.65754598      0.62778728
H       6.85502517      0.48648286      3.14682552
H       5.76105283     -0.95505802      2.91949588
H       6.17633164      0.40457679     -1.96912635
H       5.17713542      1.70088836     -1.39665943
H       3.44134480      1.10564037     -2.88235249
H       4.34550535     -1.87886780     -2.68645778
H       2.96198824     -1.24799619     -3.68963674
H       3.72328198     -1.75315356      1.45986039
H       1.76942548     -1.30285177      2.79675801
H       0.10105491      0.26806685      3.62147098
H       0.09873415      1.91167063      3.04472922
H      -1.76994203      2.65135797      1.74774027
H      -3.82207112      2.16232042      0.47995204
H      -5.35169815     -0.96854397     -2.13762901
H      -3.80315982     -1.60048697     -1.61077086
H      -2.66913582      0.44145557     -2.27561703
H      -3.92569467      2.48550214     -3.09447946
H      -5.50444137      1.70518546     -2.62372601
H      -5.64179083     -0.76392841      1.53762529
H      -5.48721746     -2.06424687      0.35013274
H      -7.35594436     -1.23360227     -0.91962473
H      -7.14087402      1.39998622      0.75019166
H      -8.44782268      1.01219504     -0.46160848
H      -2.94876851     -2.04835442      0.67421845
H      -0.91005244     -1.57297766      1.94456164
