32
O=C1c2cccc(S(=O)(=O)O)c2C(=O)c2cccc(S(=O)(=O)O)c21
O       1.59493889      2.12561426     -0.38508440
C       0.89150064      1.13052234     -0.25855845
C      -0.51428576      1.15641498     -0.71233118
C      -0.90479263      2.11728152     -1.65410528
C      -2.21996016      2.14910004     -2.11041657
C      -3.14058290      1.21440836     -1.63887864
C      -2.75268746      0.25769245     -0.68670058
S      -3.92990055     -1.00117825     -0.24088431
O      -5.17897691     -0.68355415     -0.89964137
O      -3.27209298     -2.27103373     -0.46074721
O      -4.15995650     -0.81436317      1.34443009
C      -1.43650411      0.23773499     -0.20098266
C      -0.96752330     -0.66460690      0.87287057
O      -1.75516790     -1.14362837      1.67983807
C       0.47874765     -0.93861480      0.99950207
C       0.89488267     -2.05654714      1.73418401
C       2.25197549     -2.34531047      1.85171218
C       3.19180603     -1.52833649      1.22496283
C       2.77612340     -0.40132249      0.49732383
S       4.00986551      0.51110181     -0.40528384
O       5.29991172     -0.05761136     -0.07758912
O       3.54880763      0.57514778     -1.77528654
O       3.96675107      1.99845088      0.21679456
C       1.41205846     -0.08791631      0.39851960
H      -0.18589112      2.83841565     -2.04168926
H      -2.52423235      2.88988378     -2.84811137
H      -4.15725511      1.23240706     -2.03205817
H      -3.35417523     -1.16457765      1.80676874
H       0.16502877     -2.71055838      2.21026986
H       2.57775380     -3.21789773      2.41562324
H       4.24795867     -1.78829702      1.29911433
H       3.14587455      2.44117851     -0.12356504
