32
CC(C)Nc1nc(NC(C)C)[nH]c(=O)n1
C       4.33739052     -1.23060842      1.37550707
C       3.58131572     -0.37174042      0.36464791
C       4.08100760     -0.64340072     -1.05152536
N       2.16588347     -0.67871257      0.45893770
C       1.18282188      0.15145334      0.00302047
N      -0.02343182     -0.45018737     -0.19437447
C      -1.01317004      0.28327694     -0.57106563
N      -2.23699068     -0.28889232     -0.76612799
C      -3.51984588      0.35660715     -0.52908169
C      -4.61934387     -0.48786936     -1.16933182
C      -3.76144650      0.50731364      0.97016575
N      -0.85038673      1.60224240     -0.78503520
C       0.37508857      2.17119747     -0.67929673
O       0.51557583      3.34754178     -1.00536228
N       1.39602847      1.40334381     -0.22247233
H       4.19993850     -2.29936539      1.17581586
H       5.41034636     -1.01399171      1.34641164
H       3.98029214     -1.03665290      2.39299330
H       3.76004423      0.68035357      0.61654734
H       5.15276466     -0.43432792     -1.13311725
H       3.55991141     -0.01357248     -1.78053211
H       3.91448487     -1.68739969     -1.34001898
H       1.91320746     -1.65509581      0.37373822
H      -2.21699715     -1.26646129     -0.48423129
H      -3.54092761      1.34541254     -1.00014890
H      -5.60037698     -0.02201490     -1.02945450
H      -4.44682194     -0.59739601     -2.24572199
H      -4.65534868     -1.49413272     -0.73677272
H      -2.99281036      1.13695530      1.43108538
H      -4.73444831      0.97102570      1.16321558
H      -3.73990485     -0.46373935      1.47752698
H      -1.57385027      2.17883772     -1.17241849
