17
O=C(O)c1cccc([N+](=O)[O-])c1
O       3.16331884     -1.26364899      0.30981579
C       2.40062521     -0.31872687      0.38047667
O       2.82657666      0.90397980      0.73842294
C       0.94502711     -0.35589020      0.09746618
C       0.37792619     -1.57966434     -0.28734218
C      -0.98768576     -1.67129867     -0.56574595
C      -1.79761182     -0.54013031     -0.46171598
C      -1.23112210      0.68370523     -0.07700963
N      -2.08436405      1.87417947      0.03231513
O      -1.54903236      2.93757545      0.37468780
O      -3.28959151      1.74444131     -0.22445501
C       0.13844154      0.78402391      0.20411159
H       3.78815407      0.78876813      0.89364861
H       1.00185478     -2.46902391     -0.37155908
H      -1.41825086     -2.62535044     -0.86356389
H      -2.86019853     -0.62761922     -0.68201824
H       0.57593259      1.73467965      0.50246527
