67
C[C@H](CCC(=O)O)[C@H]1CC[C@H]2[C@@H]3CC[C@@H]4C[C@H](O)CC[C@]4(C)[C@H]3CC[C@@]21C
C      -3.99423658      1.26319201      1.06985545
C      -3.94006938      0.20333193     -0.03459479
C      -5.12075433     -0.79777467      0.11997059
C      -6.52492694     -0.19861507     -0.00842157
C      -6.79469351      0.37316904     -1.37475986
O      -6.23394669      0.09197686     -2.42035215
O      -7.80945333      1.25958958     -1.36183106
C      -2.58316838     -0.56637171     -0.04856371
C      -2.51797984     -1.60199665     -1.21230024
C      -1.05106427     -1.72064250     -1.64050200
C      -0.29536189     -0.94993949     -0.57030302
C       1.14164831     -0.50748610     -0.87822544
C       2.02367920     -1.69930755     -1.26326783
C       3.44582589     -1.25029292     -1.55805706
C       4.10521566     -0.48751952     -0.40155480
C       4.56572066     -1.42917218      0.72001744
C       5.50417018     -0.70573957      1.69415303
O       5.32999920     -1.28729812      2.98443170
C       5.25818106      0.80554549      1.75978743
C       3.77897723      1.13146140      1.56704492
C       3.21978150      0.67190020      0.17811047
C       3.31435426      1.86776977     -0.80140171
C       1.72569720      0.20666244      0.37127107
C       0.78177665      1.32570213      0.88257709
C      -0.67597348      0.86508393      1.06429673
C      -1.24547910      0.22360031     -0.21468613
C      -1.36857720      1.28285161     -1.33714090
H      -4.96535264      1.76236334      1.10973362
H      -3.79712732      0.82509266      2.05321966
H      -3.27129900      2.06023288      0.89136448
H      -4.05388235      0.71805108     -0.99567116
H      -5.03547859     -1.59259953     -0.62979429
H      -5.04345319     -1.28865876      1.09882073
H      -7.26661029     -0.98849542      0.16085824
H      -6.69086126      0.57184840      0.74990200
H      -7.89976548      1.52489800     -2.30064723
H      -2.52195674     -1.13315728      0.89315502
H      -2.89697163     -2.57422438     -0.87670053
H      -3.12301116     -1.29063597     -2.07182915
H      -0.73777614     -2.76836814     -1.69264436
H      -0.90434319     -1.28189946     -2.63387421
H      -0.23737880     -1.62175521      0.30285172
H       1.13036471      0.18396148     -1.72787515
H       2.02542823     -2.44954575     -0.46322589
H       1.62389909     -2.19221960     -2.15693407
H       4.05382731     -2.12213304     -1.82821789
H       3.43324255     -0.60736151     -2.44753373
H       5.02168820     -0.05241806     -0.82771915
H       5.09954655     -2.29268660      0.30312118
H       3.70397851     -1.84884824      1.25348504
H       6.54516268     -0.88286426      1.40033130
H       5.96549833     -0.86338961      3.58646570
H       5.59488352      1.20717574      2.72227207
H       5.83961848      1.31056543      0.97926699
H       3.22712229      0.64359062      2.38165955
H       3.62584237      2.20909776      1.70532527
H       2.80771677      2.75692754     -0.41410915
H       4.35918886      2.15421102     -0.96861566
H       2.87930010      1.63753865     -1.77794716
H       1.73729708     -0.55019930      1.17100707
H       0.79515217      2.18017076      0.19940237
H       1.13777880      1.70264484      1.84798891
H      -1.26501725      1.73053750      1.37672733
H      -0.71747767      0.14777788      1.89422166
H      -0.40576840      1.71595926     -1.61910762
H      -2.00328532      2.11682705     -1.02154663
H      -1.80906229      0.87230759     -2.25106844
