28
NS(=O)(=O)c1cc(S(=O)(=O)c2ccc(O)cc2)cs1
N      -5.30999829      0.82681553     -0.92611668
S      -3.78807237      1.49820599     -0.70570794
O      -3.76529492      2.00747605      0.64557882
O      -3.53011522      2.33246715     -1.85466339
C      -2.58668203      0.19690955     -0.74402357
C      -1.60685817     -0.18598187      0.15250341
C      -0.86286357     -1.31218956     -0.31199526
S       0.44675072     -2.02964261      0.57072870
O      -0.03014051     -2.07206451      1.93791296
O       0.80217533     -3.22175022     -0.17099685
C       1.76959310     -0.86080208      0.44689327
C       2.08377664     -0.04475712      1.53940955
C       3.13320248      0.87037915      1.43575120
C       3.85746886      0.95053984      0.24856749
O       4.88906561      1.82965660      0.10519240
C       3.55544705      0.12977811     -0.83446942
C       2.50893347     -0.78695285     -0.73813872
C      -1.30356442     -1.75558350     -1.54031966
S      -2.60163751     -0.80798227     -2.12961462
H      -5.89709566      1.05117250     -0.12140841
H      -5.70488531      1.16935335     -1.80338576
H      -1.44583057      0.32153783      1.09775658
H       1.52312649     -0.11428154      2.46953596
H       3.37243800      1.50438616      2.28444337
H       4.99731400      2.32738402      0.93245815
H       4.13939324      0.20231783     -1.74852487
H       2.28469572     -1.43593116     -1.58176718
H      -0.93034216     -2.59046040     -2.12076752
