22
COc1cccc2ccccc12
C      -3.34916548     -0.71174946     -0.00977453
O      -1.96626397     -1.03381851     -0.06715804
C      -1.06566948      0.00293440      0.01100737
C      -1.43066867      1.34751623      0.14290030
C      -0.45403893      2.33940382      0.21539380
C       0.89507323      1.99839256      0.15692824
C       1.29036379      0.66006101      0.02501080
C       2.65287050      0.32090454     -0.03355104
C       3.05624410     -1.00766006     -0.16472493
C       2.10252130     -2.01499295     -0.23910497
C       0.74500256     -1.69273648     -0.18220844
C       0.30630651     -0.35657833     -0.04962868
H      -3.60703584     -0.24541512      0.94672483
H      -3.91286727     -1.64665886     -0.08520748
H      -3.64287349     -0.07856556     -0.85337963
H      -2.46860635      1.65803127      0.19234389
H      -0.74511687      3.38172141      0.31779836
H       1.63967310      2.78934826      0.21541691
H       3.41495250      1.09512976      0.02303865
H       4.11372278     -1.25363708     -0.20857821
H       2.40905497     -3.05243114     -0.34136673
H       0.01652100     -2.49919969     -0.24245473
