28
Nc1c2ccccc2nc2cc(C(F)(F)F)ccc12
N      -1.15867145     -2.61202295     -0.03849334
C      -0.85273493     -1.22185940     -0.07028068
C      -1.90208231     -0.26090842     -0.04585145
C      -3.28619455     -0.57643243     -0.03751004
C      -4.26197040      0.42040645     -0.04538418
C      -3.87613721      1.75106411     -0.05904407
C      -2.51832212      2.07238839     -0.05227987
C      -1.52942044      1.09713378     -0.03710169
N      -0.25481708      1.50619503     -0.00520573
C       0.72554199      0.60084334      0.07382004
C       2.02644212      1.07599249      0.17227710
C       3.13346322      0.22242907      0.29318838
C       4.52608674      0.79089367      0.37928787
F       5.04487992      1.07347187     -0.84704930
F       5.41367897     -0.05528557      0.97351701
F       4.58737274      1.95060373      1.09004248
C       2.91210660     -1.15407630      0.30314560
C       1.61193264     -1.65164830      0.19817909
C       0.49492239     -0.78734262      0.07033658
H      -0.42057470     -3.19138455     -0.42343177
H      -2.04102200     -2.83416450     -0.48709512
H      -3.62139651     -1.60899937     -0.00809533
H      -5.31585666      0.15485814     -0.03651225
H      -4.62201049      2.54123509     -0.06495371
H      -2.22078983      3.11895102     -0.05009809
H       2.18031631      2.15543785      0.16446995
H       3.74603896     -1.84822047      0.39803161
H       1.47921810     -2.72955914      0.23270579
