32
CN(C)c1ccc(N=Nc2ccccc2)cc1
C       4.64180435      1.10234081     -1.53329290
N       4.18849367      0.47490190     -0.29277855
C       5.09718173     -0.51761549      0.27899975
C       2.81339176      0.34858601     -0.06111232
C       2.29791552     -0.48567103      0.94725227
C       0.92067701     -0.60312709      1.19253737
C      -0.00178934      0.11401590      0.43650474
N      -1.37323875     -0.00130977      0.72688778
N      -2.01089792     -0.37854835     -0.28118809
C      -3.38069238     -0.50327096      0.01533415
C      -4.15425347      0.59371775      0.41896683
C      -5.51917645      0.44615901      0.67623500
C      -6.12507849     -0.79987554      0.52237206
C      -5.36917826     -1.89593978      0.10890773
C      -4.00427982     -1.74497464     -0.14737151
C       0.48320341      0.97258340     -0.54936478
C       1.86164818      1.08489431     -0.78932391
H       4.31937736      2.14749592     -1.59008611
H       5.73597082      1.12365021     -1.59127565
H       4.27549705      0.55473585     -2.40871595
H       4.86403993     -1.52319343     -0.08821730
H       6.13852438     -0.30228520      0.01394579
H       5.05928112     -0.50626459      1.37353493
H       2.95636895     -1.07080770      1.58155605
H       0.57078923     -1.26110169      1.98350118
H      -3.68578346      1.56766210      0.53388763
H      -6.10704139      1.30310545      0.99434111
H      -7.18736282     -0.91618936      0.72212724
H      -5.84047146     -2.86728996     -0.01582293
H      -3.41750759     -2.59974179     -0.47348430
H      -0.21227695      1.56539747     -1.13734696
H       2.16486406      1.77823071     -1.56751035
