18
Nc1ccc(S(=O)(=O)O)cc1
N       3.23529109      0.22278976     -0.50999156
C       1.88632682      0.04707946     -0.18341655
C       1.07537756     -0.77903537     -0.96920924
C      -0.29804424     -0.86971951     -0.72944877
C      -0.86808255     -0.09661759      0.28306692
S      -2.61345285     -0.18291470      0.56215841
O      -3.05063062      1.08780072      1.10008146
O      -2.89077521     -1.43578272      1.22576612
O      -3.25805479     -0.24491540     -0.91629905
C      -0.08603423      0.77994993      1.03579503
C       1.28613895      0.86042652      0.78412637
H       3.80413931      0.56798819      0.25708233
H       3.65696164     -0.57935598     -0.96812903
H       1.51041060     -1.36212550     -1.77724425
H      -0.91056612     -1.53345309     -1.33530633
H      -3.83446140      0.54248961     -1.01473607
H      -0.53123541      1.40856433      1.80356932
H       1.88669145      1.56683135      1.35213490
