30
CC(C)CCCC(C)(C)O
C       3.78111692      1.08691170      0.21224480
C       2.63840806      0.09028659      0.42234051
C       2.96939718     -1.22858242     -0.27759893
C       1.31454250      0.70293888     -0.07138066
C       0.08854893     -0.16682777      0.23060527
C      -1.20849809      0.55430857     -0.16318476
C      -2.48831137     -0.28820313      0.01919738
C      -2.70304144     -0.71747386      1.47120968
C      -3.70627109      0.50198972     -0.47056570
O      -2.39119809     -1.47673671     -0.76833471
H       3.91606814      1.31907218     -0.84971771
H       4.72507214      0.68333500      0.59376101
H       3.58256326      2.02455969      0.74212824
H       2.55638332     -0.10378558      1.49930424
H       2.23407128     -2.00256747     -0.03829723
H       2.99471341     -1.10530615     -1.36556546
H       3.94785060     -1.60298962      0.04252496
H       1.17778992      1.68074532      0.40841752
H       1.37201331      0.88859523     -1.15157479
H       0.07479197     -0.40360300      1.29998803
H       0.15967066     -1.11228914     -0.31692712
H      -1.29481322      1.48373255      0.41404641
H      -1.12374925      0.84144764     -1.21990841
H      -2.72526834      0.14355753      2.14689147
H      -3.64806673     -1.26305147      1.57822928
H      -1.92184053     -1.40826340      1.80550087
H      -4.61704485     -0.10443485     -0.40654869
H      -3.85512114      1.41605989      0.11346289
H      -3.59497323      0.77893798     -1.52518872
H      -2.25480421     -1.21236389     -1.69420563
