23
CC(O)C(=O)[O-].CC(O)C(=O)[O-].[Zn+2]
C      -0.79547450     -0.59886836     -0.82840384
C       0.24270421      0.34558582     -0.25995492
O      -0.40852920      1.59266322      0.09161552
C       0.93586032     -0.25089531      1.00379432
O       1.43514169     -1.40245217      0.88676975
O       0.91054923      0.53637275      2.00271669
C       1.26647662     -0.13243565      0.23698005
C      -0.06280444     -0.07582421     -0.48603267
O      -0.59635965     -1.42091513     -0.58068879
C      -1.08656251      0.83621272      0.25789536
O      -0.70819332      2.00669900      0.53331628
O      -2.19810679      0.25833841      0.47881264
Zn      0.00000000      0.00000000      0.00000000
H      -1.55539017     -0.84065372     -0.07683755
H      -0.34453836     -1.53501062     -1.17144241
H      -1.31893741     -0.13394188     -1.67052886
H       1.00901653      0.57697614     -1.00662090
H      -0.11040234      1.71022414      1.02889220
H       1.13666253     -0.49334582      1.26346453
H       1.74531114      0.85059847      0.27868269
H       1.94639689     -0.83149752     -0.26138344
H       0.06494714      0.29701483     -1.50728164
H      -1.50776763     -1.29484508     -0.21376501
