29
Nc1ccc(S(=O)(=O)Nc2cc(Cl)ccc2Cl)cc1
N      -3.57700416      0.07483345      2.16858248
C      -2.82983242      0.14218813      0.98771953
C      -1.95666880      1.21287778      0.76956493
C      -1.11281493      1.23199013     -0.34346399
C      -1.10392853      0.14185071     -1.21588764
S      -0.02510073      0.14498231     -2.62903753
O      -0.67224798     -0.61994843     -3.67350692
O       0.41285833      1.50546363     -2.85534870
N       1.29443605     -0.78119174     -2.11092584
C       1.94113801     -0.43353061     -0.87937443
C       2.60591338      0.78865638     -0.75850985
C       3.20191020      1.13469173      0.45411151
Cl      4.01290909      2.64398327      0.60679031
C       3.14544347      0.27037428      1.54761442
C       2.49166521     -0.95726926      1.42925969
C       1.89340513     -1.30935124      0.21827822
Cl      1.09950654     -2.83953295      0.10192088
C      -1.94358101     -0.95124315     -0.99460364
C      -2.78185138     -0.95638891      0.12304168
H      -3.81160682      0.98207438      2.56009265
H      -4.38627053     -0.53595858      2.10987880
H      -1.93085735      2.04742411      1.46608770
H      -0.46187723      2.08751208     -0.50908704
H       1.11175652     -1.77698490     -2.25173524
H       2.66739801      1.46885025     -1.60477851
H       3.61037269      0.54558237      2.49152386
H       2.45149367     -1.63045171      2.28219469
H      -1.94243924     -1.80375095     -1.66965978
H      -3.40412518     -1.82773257      0.31236955
