30
N#Cc1ccc(NS(=O)(=O)c2ccc(N)cc2)cc1
N       4.28489364      2.63124999      2.59559529
C       3.73919524      1.82680021      1.96176471
C       3.06329869      0.83193533      1.18100939
C       3.24797736      0.78022945     -0.20451881
C       2.58460169     -0.18724741     -0.96444512
C       1.73859898     -1.10534997     -0.34242163
N       1.02638297     -2.06931962     -1.10564198
S      -0.17351697     -1.55086127     -2.17904103
O      -0.89578572     -2.74059514     -2.57816995
O       0.40959898     -0.66101004     -3.15985536
C      -1.25234090     -0.59663325     -1.13583015
C      -2.24110292     -1.24518345     -0.39311579
C      -3.08158112     -0.49426436      0.43251387
C      -2.97721602      0.89987937      0.48282291
N      -3.73469388      1.62752969      1.40672866
C      -1.95733766      1.52821495     -0.23946200
C      -1.11167586      0.79085608     -1.07172301
C       1.55335287     -1.06011121      1.04010661
C       2.21429009     -0.09142398      1.80145849
H       3.90633994      1.48962168     -0.70321696
H       2.73960805     -0.22018670     -2.04109443
H       0.77591224     -2.94842727     -0.65604095
H      -2.35969917     -2.32490633     -0.44165152
H      -3.82711953     -1.00719046      1.03533276
H      -3.83309724      2.61168356      1.17532115
H      -4.62630967      1.20011184      1.63835469
H      -1.81617140      2.60364972     -0.16288424
H      -0.34152392      1.30162705     -1.64515656
H       0.88761760     -1.76101307      1.53674875
H       2.05750364     -0.05966534      2.87849599
