52
O=C1c2ccccc2-c2ccc3c4ccc5c6c(ccc(c7ccc1c2c73)c64)C(=O)c1ccccc1-5
O       5.37909834     -3.18451027     -0.12879045
C       4.88192202     -2.06300234     -0.11184055
C       5.73964521     -0.86278157     -0.13934497
C       7.13311603     -1.03466785     -0.18519675
C       7.97156347      0.07300360     -0.21211438
C       7.41729386      1.34611111     -0.19320915
C       6.02626415      1.51106831     -0.14744342
C       5.14584033      0.41011387     -0.11914310
C       3.66444044      0.53966694     -0.07042802
C       3.03109063      1.78249795     -0.04894182
C       1.64101391      1.89194450     -0.00323683
C       0.78389235      0.77231565      0.02428310
C      -0.64730121      0.89001635      0.07134440
C      -1.31015316      2.13464898      0.09380340
C      -2.69943277      2.25378065      0.13948122
C      -3.52715168      1.13110859      0.16604053
C      -2.89906712     -0.13845288      0.14471372
C      -3.67552588     -1.30581777      0.16956327
C      -3.08574528     -2.56332952      0.14950003
C      -1.70203728     -2.67585894      0.10400223
C      -0.84737070     -1.54932049      0.07656628
C       0.58309402     -1.66695867      0.02953309
C       1.24239625     -2.91800345      0.00718588
C       2.62589640     -3.03305409     -0.03830390
C       3.41303274     -1.88878415     -0.06351596
C       2.83755120     -0.61023511     -0.04391380
C       1.39960399     -0.50191935      0.00336379
C      -1.46274461     -0.26652179      0.09747883
C      -5.15313318     -1.23771109      0.21812012
O      -5.82670338     -2.26293808      0.23966655
C      -5.80342755      0.08652734      0.24020450
C      -7.20625270      0.14459893      0.28629725
C      -7.85263740      1.37437763      0.30820764
C      -7.09798979      2.53984109      0.28407250
C      -5.69870433      2.47533819      0.23808869
C      -5.00981220      1.24532430      0.21478917
H       7.56217665     -2.03485085     -0.19983668
H       9.04985044     -0.05810869     -0.24759344
H       8.06549762      2.21941506     -0.21401279
H       5.66012723      2.53325511     -0.13485590
H       3.59182034      2.71210515     -0.06684113
H       1.25075233      2.90557837      0.01013690
H      -0.75966948      3.07091531      0.07624123
H      -3.10089105      3.26251742      0.15322426
H      -3.69733257     -3.46362086      0.16908436
H      -1.31341058     -3.68992186      0.09068186
H       0.69345790     -3.85496066      0.02469524
H       3.08230511     -4.02118118     -0.05383573
H      -7.79282048     -0.77205876      0.30505306
H      -8.93785320      1.42118360      0.34386501
H      -7.59493724      3.50732075      0.30092577
H      -5.17063814      3.42399553      0.22127661
