17
COc1ncc2[nH]cnc2n1
C      -3.21977932     -0.53204180      0.34492660
O      -2.56079502      0.16795046     -0.70204363
C      -1.18921745      0.21180820     -0.54705629
N      -0.55654059      0.87607774     -1.53938374
C       0.78568384      0.98374411     -1.49466210
C       1.43240764      0.40422785     -0.43018243
N       2.73469600      0.29447319     -0.03294821
C       2.74679113     -0.41364950      1.13873036
N       1.53476844     -0.76087960      1.51130831
C       0.70713399     -0.25787754      0.54321610
N      -0.63004302     -0.37768754      0.51939020
H      -3.06375422     -0.04196833      1.31237990
H      -2.90914005     -1.58216516      0.37993911
H      -4.29358376     -0.51233321      0.13431737
H       1.27445386      1.51895517     -2.29767379
H       3.54510322      0.66452001     -0.50980953
H       3.66181532     -0.64315405      1.66955177
