26
COC(C)COC(C)CO
C       2.57874094      0.04151439     -0.41795616
O       2.37580085      0.28473616      0.96757652
C       1.22938160     -0.38961570      1.51156041
C       1.32645074     -0.22866426      3.02548955
C      -0.09487918      0.20630568      0.99999734
O      -0.39260960     -0.32651882     -0.29876406
C      -1.61382285      0.19009866     -0.85758179
C      -1.39165931      1.57007691     -1.46441809
C      -2.05784196     -0.80218473     -1.93984628
O      -2.26525487     -2.08704531     -1.35218497
H       2.52663438     -1.02744303     -0.64519898
H       3.57708305      0.40207307     -0.68143874
H       1.85462760      0.59926915     -1.01686942
H       1.29498302     -1.45580631      1.26187770
H       2.27810773     -0.62884641      3.39214459
H       0.51143946     -0.75120372      3.53555927
H       1.29879495      0.82913795      3.31010569
H      -0.01493111      1.29646421      0.94443822
H      -0.91570446     -0.06793170      1.67215060
H      -2.38143940      0.22530850     -0.07480857
H      -2.28987592      1.92451646     -1.97967349
H      -1.13414190      2.30454285     -0.69554310
H      -0.55962081      1.55415487     -2.17684556
H      -2.99297867     -0.48666442     -2.41183238
H      -1.29039522     -0.91653867     -2.71272974
H      -1.45688905     -2.25973577     -0.83173577
