23
C/C=C/c1ccc(OC)cc1
C       4.42333028      0.07575910      0.47380518
C       2.93301743      0.16220707      0.54218996
C       2.12373255     -0.12475122     -0.48971065
C       0.65796892     -0.03502444     -0.44162131
C      -0.03382706      0.37414225     -1.58625742
C      -1.43046374      0.44325067     -1.58502743
C      -2.16063607      0.09476584     -0.44762206
O      -3.51681583      0.20694951     -0.58109335
C      -4.30354289     -0.12752235      0.55509590
C      -1.47911704     -0.33000360      0.69183845
C      -0.07941955     -0.39868079      0.69174605
H       4.86316521      1.05566082      0.68297099
H       4.77522486     -0.25375021     -0.50888914
H       4.78960930     -0.63308377      1.22266489
H       2.52162070      0.49417402      1.49232206
H       2.54670838     -0.42724388     -1.44529972
H       0.50548316      0.65271841     -2.48847322
H      -1.95285093      0.77127620     -2.48031039
H      -4.17528567     -1.18025301      0.82781378
H      -4.07730100      0.53101380      1.40024819
H      -5.35458545      0.02147336      0.28945762
H      -2.00159414     -0.62120230      1.59657370
H       0.42557860     -0.75187546      1.58757792
