28
CNC(=O)O/N=C1/C2CC(C[C@@H]2C#N)[C@@H]1Cl
C       5.36633290      0.31209569      0.01099573
N       4.03270819     -0.19558101      0.18316882
C       2.95990158      0.38351269     -0.44467035
O       3.04998772      1.27757340     -1.27610585
O       1.79866398     -0.18728837      0.01670996
N       0.67539264      0.43429080     -0.55709418
C      -0.42089420     -0.09344714     -0.12109793
C      -1.76652768      0.36748858     -0.64196724
C      -2.48959763     -0.98443978     -0.60757811
C      -2.17513620     -1.24052311      0.87193160
C      -2.79451462      0.03177791      1.50379532
C      -2.40417808      1.15698606      0.51299049
C      -3.57797303      1.91680146      0.06193095
N      -4.51418725      2.49999902     -0.29687486
C      -0.62219966     -1.22113464      0.86771154
Cl      0.07939838     -0.87911611      2.44702253
H       5.54209100      0.57563322     -1.03542917
H       5.48510772      1.20223479      0.63440933
H       6.07500065     -0.45705183      0.32628425
H       3.81824172     -0.79481169      0.96740520
H      -1.72070739      0.86055584     -1.61407353
H      -3.56192430     -0.90699033     -0.81530044
H      -2.04360945     -1.73358332     -1.27170842
H      -2.59215834     -2.16641286      1.27507472
H      -2.42951103      0.23587857      2.51426804
H      -3.88363249     -0.08576294      1.57530090
H      -1.68248294      1.83887693      0.97902537
H      -0.20359220     -2.14756180      0.46180105
