62
CSC(=O)C1(OC(C)=O)C(C)CC2C3CCC4=CC(=O)C=CC4(C)C3(F)C(O)CC21C
C      -5.62532600      2.44911877      0.05229385
S      -4.33994053      1.49568188     -0.78580141
C      -3.32034809      1.13228368      0.62119142
O      -3.31061659      1.89028897      1.58546688
C      -2.40353281     -0.13038880      0.50249082
O      -3.01477240     -1.34485478     -0.00014897
C      -4.27805389     -1.67932302      0.37093629
C      -4.67270728     -2.97175877     -0.27476755
O      -4.98953991     -1.04379235      1.13189448
C      -1.70653462     -0.44119520      1.86632944
C      -2.50906579     -1.21220587      2.90977199
C      -0.40934934     -1.18427700      1.51053668
C      -0.15826482     -0.97274142      0.00597875
C       1.32293036     -0.77393693     -0.41391408
C       2.19928380     -1.91177146      0.15096820
C       3.66199864     -1.78095296     -0.25473286
C       4.18518275     -0.42255754      0.13404247
C       5.22619787     -0.30876919      0.97789722
C       5.72974491      1.00588044      1.42389830
O       6.69359788      1.09783372      2.17269638
C       5.02517693      2.20259231      0.92763901
C       3.98837740      2.09422512      0.08674320
C       3.42221170      0.78008169     -0.44843902
C       3.68053658      0.79886333     -1.97317349
C       1.89254579      0.62771895     -0.05378651
F       1.83675389      0.72554236      1.32221816
C       0.96097414      1.74690732     -0.58738673
O       1.02131175      1.95687271     -1.99344381
C      -0.49903455      1.55761803     -0.14751896
C      -1.13057812      0.16044764     -0.42389257
C      -1.45817620      0.00743475     -1.92954053
H      -6.07430229      1.86210001      0.85819510
H      -6.40866221      2.70696485     -0.66690603
H      -5.21429426      3.37697027      0.46028648
H      -4.08107320     -3.78865046      0.14596416
H      -5.73218737     -3.16383483     -0.08355742
H      -4.52572220     -2.90808682     -1.35632265
H      -1.41717924      0.49963401      2.35230858
H      -3.42423969     -0.67523690      3.17448114
H      -2.77197649     -2.21812720      2.57005511
H      -1.92174629     -1.32607112      3.82861444
H       0.39999074     -0.80738353      2.14191707
H      -0.49034185     -2.25900710      1.71500651
H      -0.48829509     -1.90239554     -0.48473565
H       1.35154003     -0.87306044     -1.50616737
H       1.81683430     -2.87721712     -0.19977797
H       2.14710979     -1.93270453      1.24520575
H       3.77125747     -1.93134661     -1.33505711
H       4.23733836     -2.58256263      0.22508115
H       5.74570005     -1.16484499      1.39268093
H       5.39774490      3.15903442      1.27319643
H       3.52509586      3.01530183     -0.26171801
H       3.14098034      0.00667830     -2.50177054
H       4.74752617      0.66252875     -2.19453917
H       3.39645231      1.75197094     -2.43341895
H       1.27833618      2.69539283     -0.13932892
H       0.83977875      1.13005205     -2.46425356
H      -1.11277297      2.33040022     -0.62862112
H      -0.52741231      1.77715859      0.92482691
H      -2.15353839     -0.81396563     -2.12703857
H      -0.57201678     -0.21911533     -2.52608463
H      -1.90090806      0.91855736     -2.34186421
