32
O=C(O)CCCCCCCCC(=O)O
O       4.18918444      2.67298061      0.21000927
C       3.87770446      2.07111377     -0.80358878
O       3.74009638      2.71749395     -1.97608051
C       3.58204522      0.60358087     -0.90988094
C       2.08185327      0.34940027     -0.81570484
C       1.76849259     -1.14596556     -0.88513292
C       0.26863093     -1.45424318     -0.91269306
C      -0.45523633     -1.07433761      0.38216548
C      -1.92371785     -1.50621061      0.33992498
C      -2.67132796     -1.26694098      1.65763574
C      -2.79876750      0.19846927      2.07351418
C      -3.66624657      1.00060683      1.14079808
O      -4.49206339      0.58046169      0.34921286
O      -3.47085185      2.32604775      1.28568296
H       3.94711579      3.65064039     -1.75897244
H       3.99569961      0.22442598     -1.85136182
H       4.11804080      0.09131213     -0.10255681
H       1.70462668      0.77387615      0.12183842
H       1.56605799      0.87474528     -1.62895144
H       2.21900318     -1.56359751     -1.79421904
H       2.23422648     -1.66196932     -0.03669461
H       0.14578602     -2.53005385     -1.08947310
H      -0.19728029     -0.93976068     -1.76197247
H       0.04365942     -1.54948228      1.23507607
H      -0.39665834      0.00853726      0.52792753
H      -2.43435557     -0.99386804     -0.48345633
H      -1.97331183     -2.57930405      0.11587957
H      -3.67270078     -1.70692946      1.57029730
H      -2.16025676     -1.81477337      2.45895591
H      -1.81115913      0.66506913      2.13877310
H      -3.25954653      0.24992016      3.06663541
H      -4.09874260      2.72875498      0.64980103
