41
CC(C)NCC(O)COc1ccc(CC(N)=O)cc1
C       5.81130140      0.43166965     -1.49661021
C       4.50047403      1.19941313     -1.68497995
C       4.62825157      2.63901115     -1.18179235
N       3.34496509      0.48379624     -1.12632462
C       3.26857692      0.46272995      0.34229922
C       2.18649238     -0.51670647      0.83390096
O       2.53149670     -1.84960562      0.40811465
C       0.78284461     -0.16192452      0.32594683
O      -0.13552893     -1.03599050      1.00077179
C      -1.45605502     -0.93474263      0.66253718
C      -2.29633358     -1.83181318      1.32443278
C      -3.66881238     -1.84511519      1.06901582
C      -4.22493605     -0.95343663      0.14474595
C      -5.70682437     -0.97477461     -0.13479945
C      -6.53529177     -0.56755979      1.06719911
N      -6.72311876      0.77880056      1.22287075
O      -7.02162983     -1.36664858      1.86111397
C      -3.38012548     -0.05081574     -0.51593728
C      -2.00373693     -0.04096642     -0.25883344
H       6.10616782      0.36281701     -0.44434897
H       6.62515488      0.92967007     -2.03612818
H       5.72921169     -0.58550027     -1.89512372
H       4.31969047      1.25682401     -2.76749983
H       3.68953892      3.18688968     -1.32142162
H       4.89834587      2.68052720     -0.12021689
H       5.40709627      3.17184114     -1.74190656
H       3.37665357     -0.49451385     -1.43564046
H       4.22585090      0.13708855      0.76369407
H       3.04164515      1.46338318      0.72551659
H       2.18920281     -0.53289974      1.93093446
H       1.76184417     -2.40438437      0.63720900
H       0.71859929     -0.34052844     -0.75426960
H       0.54803717      0.88298856      0.56549296
H      -1.88075964     -2.53120012      2.04509068
H      -4.30139565     -2.55754084      1.59663479
H      -5.95511264     -0.31388412     -0.97449898
H      -6.00998398     -1.98233268     -0.44319231
H      -6.05285166      1.42988484      0.83118436
H      -7.16832530      1.05184262      2.09086416
H      -3.78139808      0.65022921     -1.24428766
H      -1.38922161      0.67347752     -0.79646621
