56
CC(=O)[O-].CCN(CCO)c1ccc(N=Nc2sc3cc(OC)ccc3[n+]2C)cc1
C      -0.63149873      0.02265627      0.10596816
C       0.86474352     -0.03702103     -0.14764292
O       1.28180891     -1.11145548     -0.66228339
O       1.50101473      1.00018799      0.19060414
C      -6.31753847      0.30428313      2.04905285
C      -5.69509202      1.07040849      0.89095583
N      -5.04364980      0.13935841     -0.05950721
C      -5.69542960      0.03118780     -1.39111938
C      -6.97852930     -0.80349118     -1.28165703
O      -6.67876617     -2.06691989     -0.68838566
C      -3.64365129      0.27958647     -0.06607682
C      -2.90356504     -0.24695771      1.00246947
C      -1.50878508     -0.14545723      1.04391579
C      -0.81435058      0.48599760      0.00845533
N       0.58777967      0.62106397      0.02249424
N       1.13713471     -0.50131141     -0.01934391
C       2.48882553     -0.46148154     -0.08772910
S       3.35008788     -1.20426713     -1.36728505
C       4.86521694     -0.66679148     -0.74766670
C       6.15117955     -0.86160624     -1.28564855
C       7.23975171     -0.31867282     -0.59923731
O       8.54836541     -0.41026235     -0.98053251
C       8.83811321     -1.12698776     -2.17631108
C       7.03894992      0.39294373      0.58414909
C       5.75794005      0.58190306      1.11904328
C       4.65588239      0.03565526      0.43671201
N       3.31524837      0.09315766      0.78389908
C       2.84060985      0.73542135      2.00150205
C      -1.54267012      1.03871216     -1.04691765
C      -2.93894413      0.93315265     -1.08518607
H      -0.82072228      0.17068754      1.17330915
H      -1.06883206      0.85616977     -0.45167706
H      -1.12651409     -0.90122506     -0.20827808
H      -6.80079925      0.99927805      2.74350178
H      -5.56567119     -0.26171529      2.60698048
H      -7.07542907     -0.40323145      1.69933469
H      -6.48081736      1.64444391      0.38476126
H      -4.98964499      1.81320593      1.28676384
H      -5.03042529     -0.50114868     -2.08356707
H      -5.91100838      1.02028449     -1.81118865
H      -7.40977199     -0.97963850     -2.27146187
H      -7.73054348     -0.30495604     -0.66346603
H      -5.98989109     -1.86978141     -0.02136656
H      -3.41839095     -0.76760940      1.80663956
H      -0.97739327     -0.57202244      1.88843530
H       6.26989796     -1.41796345     -2.21013482
H       8.53430247     -2.17526519     -2.08948494
H       8.36945063     -0.65033570     -3.04346819
H       9.92171278     -1.10342495     -2.32614970
H       7.90327160      0.81132869      1.10211770
H       5.66076618      1.14885384      2.04048736
H       1.91269854      0.27687733      2.35589902
H       2.67667854      1.79920519      1.80563218
H       3.57159763      0.62227353      2.80706944
H      -1.02894164      1.55597777     -1.85392138
H      -3.46576196      1.38673877     -1.92080016
