35
c1ccc2c(c1)ccc1nc3c(ccc4ccccc43)cc12
C       5.66432776      0.19173039      0.05738337
C       5.01959574     -0.24461082      1.20496776
C       3.62337555     -0.30912619      1.23886721
C       2.82394073      0.06011347      0.12738433
C       3.50878250      0.50179886     -1.03090304
C       4.91243453      0.56270773     -1.05399572
C       2.78024971      0.87972120     -2.15917039
C       1.38747264      0.82549883     -2.15357513
C       0.67812607      0.40123166     -1.04633871
N      -0.66176352      0.38544605     -1.14223714
C      -1.42509712     -0.01702434     -0.10133988
C      -0.82282100     -0.42607377      1.10042592
C      -1.60297726     -0.84560714      2.18709873
C      -2.99064622     -0.86381172      2.09291342
C      -3.62057600     -0.46345763      0.91247986
C      -5.02205904     -0.47973109      0.81152321
C      -5.65940452     -0.08174928     -0.36309986
C      -4.90399774      0.33726898     -1.45091456
C      -3.51043962      0.35790115     -1.36287591
C      -2.83494511     -0.03848170     -0.18874995
C       0.57675049     -0.40484576      1.18739066
C       1.38275904      0.01297594      0.10820666
H       6.74920385      0.24414642      0.02466407
H       5.59806138     -0.53640921      2.07778309
H       3.16838036     -0.65762422      2.16168779
H       5.43448808      0.90277724     -1.94634028
H       3.28505380      1.22216079     -3.05991727
H       0.84038930      1.12509721     -3.04483166
H      -1.13499975     -1.16194696      3.11669479
H      -3.57445957     -1.19337747      2.94958164
H      -5.63174409     -0.80449017      1.65207711
H      -6.74408726     -0.09935729     -0.42728799
H      -5.39283603      0.64906933     -2.37005699
H      -2.93750665      0.69010336     -2.22802903
H       1.03696901     -0.72202383      2.11853385
