59
CN(CCC#N)c1ccc(C=CC2=[N+](C)c3ccccc3C2(C)C)cc1.O=P([O-])(O)O
C       6.05360282     -2.19807081     -0.60314247
N       5.50975915     -0.85724854     -0.81921780
C       6.33221461      0.26833415     -0.32120848
C       6.21980391      0.49090252      1.19103847
C       5.01943578      1.25507174      1.55918220
N       4.08401867      1.87125163      1.86794812
C       4.12629208     -0.68143269     -0.86676181
C       3.57383165      0.47476580     -1.43786903
C       2.19429519      0.71356244     -1.44249923
C       1.31487328     -0.20617636     -0.87147331
C      -0.11924761      0.10565044     -0.85252163
C      -0.89830790     -0.15252969      0.20825630
C      -2.32269050      0.22574040      0.19193938
N      -2.80720975      1.42109404      0.02991412
C      -2.12917408      2.71502502     -0.10358383
C      -4.27671143      1.36127288      0.04567476
C      -5.18552047      2.39119067     -0.11650147
C      -6.54278397      2.06459551     -0.06054187
C      -6.95330132      0.73696104      0.15070911
C      -6.01665935     -0.28790850      0.30862698
C      -4.67326048      0.04351907      0.25210512
C      -3.44882150     -0.82140608      0.38013022
C      -3.39369674     -1.87743447     -0.72686570
C      -3.36892636     -1.46640336      1.76595172
C       1.83722061     -1.39569478     -0.36119604
C       3.22084027     -1.62620660     -0.36384818
O       1.31511126      0.90929009      0.67943552
P       0.38424995      0.10620467     -0.17080001
O       0.66944465     -0.37309109     -1.55787068
O      -0.10041174     -1.18651978      0.64425020
O      -1.01354242      0.89109505     -0.15481153
H       5.91787073     -2.52189840      0.43436900
H       5.58512983     -2.92711989     -1.27444769
H       7.12681164     -2.21508749     -0.82302014
H       6.12451190      1.19343626     -0.87167697
H       7.38148507      0.03812378     -0.54900773
H       6.23717780     -0.46229454      1.73026438
H       7.09842867      1.05817546      1.52244677
H       4.21798531      1.21699711     -1.90281115
H       1.83388681      1.64018354     -1.88159985
H      -0.49629602      0.59990450     -1.74529872
H      -0.52854042     -0.66431527      1.09242258
H      -2.27473593      3.08022697     -1.12402731
H      -2.55047171      3.41541013      0.62321186
H      -1.06209731      2.60220010      0.10146160
H      -4.88992994      3.42131609     -0.28327968
H      -7.29678366      2.84214393     -0.18182038
H      -8.01801186      0.50561574      0.19066476
H      -6.34846942     -1.31066802      0.46988427
H      -4.24909115     -2.56078096     -0.67287338
H      -3.40087345     -1.41647545     -1.72206102
H      -2.48158985     -2.48079589     -0.65577935
H      -2.46049785     -2.06976796      1.87318171
H      -3.35193249     -0.71049215      2.56031617
H      -4.22628592     -2.12327632      1.95252575
H       1.18938172     -2.16314522      0.05421947
H       3.57306093     -2.55604153      0.07331775
H      -0.32886953     -1.80915672     -0.06774048
H      -0.92598217      1.46217778      0.62753699
