38
CCCCCCCCN(C)C.[B+3].[Cl-].[Cl-].[Cl-]
C      -4.23887970      0.85037369      1.00632958
C      -4.07961797     -0.60730570      0.58040392
C      -3.24004945     -0.66368343     -0.66064610
C      -1.89927718     -0.05681031     -0.40870249
C      -1.18615259     -0.80642268      0.67418742
C       0.16582203     -0.21589272      0.93121806
C       1.09372987     -0.21846497     -0.25714486
C       2.38917031      0.40707104      0.22550568
N       3.39580912      0.49704003     -0.77821078
C       3.92797915     -0.75853177     -1.20873122
C       4.39650052      1.46922141     -0.41996071
B       0.00000000      0.00000000      0.00000000
Cl      0.00000000      0.00000000      0.00000000
Cl      0.00000000      0.00000000      0.00000000
Cl      0.00000000      0.00000000      0.00000000
H      -5.07038245      0.99615824      1.70358561
H      -3.24873870      1.14338247      1.44769844
H      -4.34893536      1.46284291      0.06946934
H      -5.08621546     -1.04030869      0.34524565
H      -3.63442415     -1.20550032      1.38283350
H      -3.16204425     -1.75513544     -0.94026333
H      -3.72264404     -0.09435361     -1.49029512
H      -1.26525197     -0.04839585     -1.34412928
H      -1.98540990      1.02886346     -0.14953719
H      -1.13045275     -1.88192786      0.49867265
H      -1.74400631     -0.71347491      1.65587623
H       0.68800170     -0.79469573      1.73723368
H       0.05912963      0.85753796      1.25536656
H       0.69654281      0.28851648     -1.14390212
H       1.25065751     -1.29066104     -0.55321197
H       2.72897909     -0.22421379      1.09407353
H       2.11549617      1.40719452      0.61841479
H       5.01766615     -0.78598550     -0.99909814
H       3.71824284     -0.93667305     -2.28133748
H       3.44759314     -1.56296820     -0.62948104
H       4.01898567      2.04992658      0.44544436
H       5.34475699      0.99193886     -0.07489678
H       4.58741951      2.21133793     -1.22357328
