15
CN(C)C.[Cl-].[H+]
C      -0.55804284     -1.19033204     -0.04993128
N       0.07072615     -0.00201774      0.47193032
C       1.36110464      0.12800988     -0.13900184
C      -0.78113680      1.12527927      0.33534362
Cl      0.00000000      0.00000000      0.00000000
H       0.00000000      0.00000000      0.00000000
H      -0.15184136     -1.42905034     -1.06143733
H      -1.63796872     -1.01862770     -0.17242252
H      -0.31616300     -2.06413173      0.58464044
H       1.90978883     -0.83435731      0.08783284
H       1.32198391      0.14605830     -1.25798091
H       1.97710416      0.95062047      0.27590402
H      -0.28788594      2.10385714      0.41627377
H      -1.34383598      1.01054333     -0.63292886
H      -1.56383305      1.07414846      1.14177774
