24
COC(=O)c1ccccc1OC(C)=O
C       3.66428784      0.10379073      0.11968093
O       2.45369443     -0.65230162      0.06808465
C       1.34719725      0.04898049      0.42868651
O       1.34076680      1.21532484      0.78978547
C       0.13368070     -0.80876529      0.31279482
C       0.24176616     -2.20569659      0.21116208
C      -0.90368155     -3.00541477      0.13618331
C      -2.16997592     -2.42301101      0.16899539
C      -2.29655283     -1.03927549      0.27058163
C      -1.14948901     -0.24068930      0.32632107
O      -1.35667471      1.13691512      0.45254705
C      -1.15080736      1.82577211     -0.73750792
C      -1.29474312      3.29558166     -0.47914232
O      -0.91110309      1.33497787     -1.83336793
H       3.86403747      0.43745977      1.14275323
H       4.48357216     -0.54683785     -0.19839336
H       3.61375195      0.95662147     -0.56455231
H       1.21535889     -2.69032218      0.19605758
H      -0.80538272     -4.08575972      0.05600991
H      -3.05814531     -3.04794903      0.11454963
H      -3.28279569     -0.58432001      0.29808956
H      -1.08123087      3.84702508     -1.39924186
H      -2.31761691      3.51772281     -0.16549525
H      -0.57991458      3.61017091      0.28541813
