29
CC(=O)NC(NC(C)=O)c1ccccc1
C      -3.08291541     -2.57612407      0.48930119
C      -2.00943139     -1.83561624     -0.26269179
O      -1.60858925     -2.21295470     -1.35711634
N      -1.55176711     -0.71279002      0.38815896
C      -0.65479666      0.19465442     -0.27608461
N      -0.66302876      1.41504284      0.49112946
C      -0.60802874      2.63516260     -0.14077562
C      -0.37331592      3.79492882      0.78985516
O      -0.73667035      2.79054105     -1.34976227
C       0.77404416     -0.32161315     -0.35796796
C       1.57068032      0.02731912     -1.46160572
C       2.89930361     -0.39271409     -1.54535255
C       3.45368388     -1.16070840     -0.52403069
C       2.68207949     -1.50745053      0.58295053
C       1.35303174     -1.08713742      0.66931897
H      -4.04944557     -2.38302336      0.01682135
H      -3.12770886     -2.26387732      1.53655943
H      -2.86502050     -3.64738475      0.46183449
H      -2.18602231     -0.27472242      1.03629442
H      -1.04780657      0.37188707     -1.28483929
H      -0.23796224      1.34967798      1.40376905
H      -1.07137743      4.59938025      0.54208689
H      -0.53458813      3.51277698      1.83409865
H       0.65443175      4.14721868      0.66984648
H       1.15344542      0.63238407     -2.26584776
H       3.49905004     -0.12132496     -2.41027953
H       4.48643601     -1.49181157     -0.59333247
H       3.11427844     -2.11023460      1.37732542
H       0.76801032     -1.37148629      1.54033614
