26
Cc1cccc2c1Cc1ccccc1-2
C      -3.06980856      1.54455467     -0.32413420
C      -2.28230770      0.27754413     -0.20604821
C      -2.90817692     -0.97596917     -0.25761790
C      -2.16691691     -2.16577709     -0.14652683
C      -0.78003046     -2.13454638      0.01910594
C      -0.15180530     -0.90228623      0.07135219
C      -0.90070310      0.29234495     -0.04074233
C       0.02577873      1.49228014      0.04785374
C       1.38055258      0.83870928      0.22243960
C       2.61530077      1.45127445      0.35896161
C       3.73816050      0.63517476      0.50879098
C       3.61317909     -0.76454650      0.51998814
C       2.36194477     -1.37441762      0.38144081
C       1.24748425     -0.56588161      0.23275952
H      -2.73593997      2.11893413     -1.19415182
H      -2.94828415      2.15215004      0.57829078
H      -4.13878285      1.34226416     -0.44840765
H      -3.98687227     -1.04309430     -0.38564580
H      -2.68160053     -3.12277373     -0.19031458
H      -0.21791558     -3.05800086      0.10374409
H      -0.00450116      2.07351716     -0.87839714
H      -0.21987172      2.10712196      0.91866923
H       2.71173507      2.53169286      0.35031382
H       4.72176568      1.08606197      0.61823780
H       4.50136844     -1.38087674      0.63795706
H       2.27624729     -2.45545442      0.39138582
