7
[Cl-].[Cl-].[Cl-].[Cl-].[H+].[H+].[Pd+2]
Cl      0.00000000      0.00000000      0.00000000
Cl      0.00000000      0.00000000      0.00000000
Cl      0.00000000      0.00000000      0.00000000
Cl      0.00000000      0.00000000      0.00000000
H       0.00000000      0.00000000      0.00000000
H       0.00000000      0.00000000      0.00000000
Pd      0.00000000      0.00000000      0.00000000
