74
CCCCCCCCCCCC(=O)OOC(=O)CCCCCCCCCCC
C      11.97207591      0.51508239      1.79420249
C      10.73177088      1.22808996      1.27966518
C       9.81134495      0.27301293      0.51840686
C       8.58463337      1.00554549     -0.03083340
C       7.67870922      0.11208543     -0.88410755
C       6.89871214     -0.91851357     -0.06334726
C       6.07550824     -1.88424534     -0.92339869
C       5.03857306     -1.24216186     -1.84937562
C       3.95801739     -0.45321864     -1.10573955
C       2.92095858      0.10717002     -2.08500839
C       1.81181236      0.89239483     -1.38509665
C       0.90696779      0.06809179     -0.49855829
O       0.42728271      0.48690212      0.54962351
O       0.64793117     -1.15363885     -1.05235685
O      -0.32807386     -1.81746494     -0.18514400
C      -1.55104649     -1.65787561     -0.77567398
O      -1.76014852     -1.10332601     -1.84808263
C      -2.62942321     -2.24822892      0.09644893
C      -3.20433200     -1.22282763      1.06810698
C      -4.05815998     -0.16213218      0.36480131
C      -4.73521399      0.76619990      1.37568048
C      -5.50657521      1.91885789      0.72503562
C      -6.60896368      1.51594016     -0.25944817
C      -7.69101898      0.62919669      0.36220811
C      -8.81270589      0.34403145     -0.63997767
C      -9.85904759     -0.64542035     -0.11796724
C     -10.60433636     -0.21798432      1.14867097
C     -11.37626279      1.08263208      0.99026569
H      12.62006516      1.21818824      2.32721673
H      11.70261277     -0.28961566      2.48589234
H      12.54751284      0.08220103      0.96950392
H      10.19221911      1.66714026      2.12620375
H      11.03726098      2.05292340      0.62626848
H      10.36471314     -0.18569036     -0.30956033
H       9.50205427     -0.53642451      1.18837984
H       8.00700244      1.44262841      0.79276243
H       8.92429002      1.84091748     -0.65623674
H       8.27626641     -0.39360556     -1.65212167
H       6.97069212      0.76417497     -1.40894338
H       7.59337529     -1.52112254      0.53275653
H       6.24668508     -0.40393149      0.65192576
H       5.56716200     -2.59346497     -0.25830349
H       6.76287722     -2.47923609     -1.53789936
H       5.53568965     -0.59679543     -2.58236322
H       4.55921008     -2.04403559     -2.42555734
H       3.47107559     -1.10726734     -0.37355644
H       4.41025679      0.37638486     -0.55063594
H       3.42582031      0.77891212     -2.79032623
H       2.49393669     -0.70748543     -2.68174392
H       1.17469724      1.37619361     -2.13448725
H       2.25939898      1.68192958     -0.76993658
H      -2.20493213     -3.09420661      0.65139875
H      -3.40724247     -2.67012331     -0.55066506
H      -2.39420291     -0.73291764      1.62230274
H      -3.82402893     -1.75181727      1.80220173
H      -4.81691924     -0.66286493     -0.24720842
H      -3.43236978      0.43228286     -0.31064235
H      -5.40488064      0.18641468      2.02128966
H      -3.97149746      1.19815287      2.03467685
H      -5.94902761      2.53114062      1.52061007
H      -4.79489300      2.56735703      0.19855042
H      -6.16856322      1.01267490     -1.12815467
H      -7.07413981      2.43393312     -0.64074827
H      -7.25569998     -0.32115225      0.69031456
H      -8.09678531      1.12864826      1.24914467
H      -9.29619468      1.28234433     -0.93534081
H      -8.37650271     -0.07762896     -1.55446346
H     -10.59100714     -0.82710519     -0.91529883
H      -9.37071161     -1.60882685      0.07537191
H     -11.31212892     -1.01277408      1.41481159
H      -9.90873252     -0.13172590      1.99075191
H     -11.96463618      1.28257313      1.89185017
H     -10.70354118      1.93218444      0.83973835
H     -12.06522598      1.03011862      0.14127044
