40
CCCN(CC1CC1)c1c([N+](=O)[O-])cc(C(F)(F)F)cc1[N+](=O)[O-]
C      -1.20404987      3.42090049      1.55365680
C      -0.68270869      2.00253215      1.38170560
C      -1.09916855      1.41591110      0.03038430
N      -0.68236017      0.00380008     -0.11563265
C      -1.34552133     -0.73368284     -1.21217106
C      -2.70543085     -1.18302471     -0.76171893
C      -3.68138588     -1.73976595     -1.76909123
C      -3.95165953     -0.41120094     -1.12185466
C       0.68201386     -0.30019266      0.01878930
C       1.10013527     -1.17964591      1.03997593
N       0.11496334     -1.77649910      1.91969269
O      -0.43557197     -2.81235221      1.52220340
O      -0.03409816     -1.25002962      3.03066420
C       2.44425138     -1.52309248      1.28303203
C       3.45601663     -0.99345433      0.47548462
C       4.90855623     -1.32447946      0.73103396
F       5.65253191     -1.33169017     -0.40747335
F       5.07947046     -2.54682193      1.30157248
F       5.49693977     -0.42777877      1.56506168
C       3.08887181     -0.12174358     -0.55812747
C       1.73101986      0.20031597     -0.77495128
N       1.46991265      1.07366647     -1.89866834
O       1.00390277      0.55518535     -2.92089518
O       1.77910518      2.26453856     -1.76216032
H      -0.81124635      4.07972478      0.77262674
H      -2.29745834      3.44595204      1.50766076
H      -0.89605920      3.82267320      2.52403330
H      -1.06933478      1.37660878      2.19440057
H       0.40865697      2.01654705      1.47838435
H      -0.72225967      2.03058333     -0.79265556
H      -2.19219122      1.46829753     -0.03037892
H      -1.41729616     -0.10657816     -2.10873566
H      -0.77463503     -1.63078886     -1.48548673
H      -2.67057444     -1.67896137      0.20263601
H      -4.29028628     -2.58513310     -1.46769597
H      -3.40451162     -1.74621626     -2.81726667
H      -3.86032783      0.47691046     -1.73634873
H      -4.74086032     -0.35718976     -0.38017862
H       2.69384969     -2.20062619      2.10095612
H       3.85879847      0.30680103     -1.20284068
