21
CC(=O)Nc1ccccc1[N+](=O)[O-]
C       3.47972643     -0.00231506      0.62106230
C       2.13630467      0.68411770      0.60283965
O       2.02647303      1.85840828      0.93485506
N       1.13001543     -0.15225097      0.15670468
C      -0.25437156      0.12684490      0.00194213
C      -0.78679183      1.38010212      0.33761066
C      -2.15090001      1.65951746      0.18875465
C      -3.01954233      0.69149002     -0.29973825
C      -2.52561673     -0.56385373     -0.64226136
C      -1.15277059     -0.84966031     -0.49425321
N      -0.70198257     -2.19929683     -0.87923123
O      -1.54274101     -2.98232685     -1.34404705
O       0.49557570     -2.48681434     -0.72016045
H       3.38704659     -1.02720680      0.99193732
H       3.89653057     -0.01136713     -0.38944813
H       4.15667380      0.54001945      1.28745407
H       1.41968823     -1.09594358     -0.10432614
H      -0.16395138      2.18065369      0.72694644
H      -2.52861509      2.64377509      0.45948312
H      -4.07799977      0.91468382     -0.41307213
H      -3.22275158     -1.30857695     -1.02305212
