12
Clc1ccc(Cl)cc1
Cl     -3.10313811      0.21460337     -0.05886612
C      -1.38744195      0.09595117     -0.02631936
C      -0.61250257      1.25560372     -0.05471360
C       0.78107918      1.15922795     -0.02827750
C       1.38744203     -0.09595117      0.02631971
Cl      3.10313823     -0.21460327      0.05886718
C       0.61250258     -1.25560373      0.05471334
C      -0.78107915     -1.15922793      0.02827756
H      -1.08519771      2.23342736     -0.09725255
H       1.38509759      2.06258951     -0.05039020
H       1.08519745     -2.23342754      0.09725099
H      -1.38509759     -2.06258944      0.05039055
