31
O=C(c1cc([N+](=O)[O-])cc([N+](=O)[O-])c1)N(O)c1ccccc1
O       0.42732331     -1.16922483      1.67495506
C       0.18614160     -0.52401574      0.65770970
C      -1.25596469     -0.35529461      0.34090072
C      -1.80157281      0.91593245      0.11953740
C      -3.17501081      1.04150159     -0.12956686
N      -3.74662355      2.37194353     -0.37656574
O      -4.93113632      2.42781899     -0.73187722
O      -3.00880137      3.35293962     -0.21729199
C      -4.01012291     -0.08459973     -0.14421522
C      -3.44982752     -1.34563934      0.10239710
N      -4.31049329     -2.53463261      0.09851112
O      -5.53490136     -2.35366901      0.11121279
O      -3.75743718     -3.64177109      0.07340237
C      -2.07879643     -1.48863826      0.35214240
N       1.10642832      0.04695664     -0.21294575
O       0.59976534      0.57085585     -1.42770762
C       2.51522073      0.16311562     -0.04167613
C       3.28314544      0.85958210     -0.99238599
C       4.66953001      0.98774707     -0.85514405
C       5.31553176      0.42352741      0.23885842
C       4.57429570     -0.26235273      1.19523839
C       3.18655650     -0.38868181      1.05702583
H      -1.15406522      1.79191704      0.14714525
H      -5.07759426      0.01863085     -0.33752608
H      -1.64252833     -2.46483346      0.56399381
H       0.88977121     -0.11718874     -2.05659260
H       2.81594324      1.33629570     -1.85037833
H       5.24071210      1.53547961     -1.60060814
H       6.39213349      0.52282430      0.35041191
H       5.07170263     -0.70208788      2.05662075
H       2.66067467     -0.93443853      1.83441868
