29
O=C(NC(=O)c1cccnc1)Nc1ccccc1
O      -0.89999348      1.93572379      1.11697704
C      -0.50039074      0.97049329      0.47137071
N       0.86522361      0.78635848      0.38066604
C       1.56587619     -0.18682098     -0.31126291
O       1.02899153     -1.03974257     -1.01299919
C       3.04267853     -0.14730237     -0.19782149
C       3.72185663      0.40066586      0.89395445
C       5.11666450      0.38650744      0.90729938
C       5.78354152     -0.18024710     -0.16746904
N       5.15711829     -0.72893260     -1.22985433
C       3.80109970     -0.70869065     -1.21872416
N      -1.26065443      0.03659121     -0.17863264
C      -2.66256555     -0.05080488     -0.25625134
C      -3.53671737      0.83674656      0.37340129
C      -4.92060879      0.67707820      0.24582193
C      -5.44033511     -0.37055593     -0.51105746
C      -4.57660756     -1.26141049     -1.14211388
C      -3.19445824     -1.10181644     -1.01463481
H       1.36229098      1.52327541      0.85647614
H       3.19748233      0.81342445      1.75003901
H       5.67318854      0.80007656      1.74206397
H       6.86931107     -0.21464471     -0.20051783
H       3.33316612     -1.16732582     -2.08708824
H      -0.73068067     -0.66833306     -0.68841202
H      -3.17406734      1.66543166      0.97284488
H      -5.59054057      1.37551943      0.74083792
H      -6.51596490     -0.49120542     -0.60800141
H      -4.97620344     -2.08063907     -1.73388583
H      -2.53870136     -1.80942026     -1.51638049
