19
CCCC(O)CO
C       2.88336458     -0.38066933      0.06690655
C       1.46908450     -0.85187294     -0.23409322
C       0.44911704      0.27101181     -0.02559866
C      -0.98259561     -0.19559318     -0.29024485
O      -1.11287409     -0.59190364     -1.65913389
C      -1.99908442      0.91626310     -0.01219678
O      -3.30653055      0.41607086     -0.30432983
H       2.97224295     -0.04363256      1.10461126
H       3.59565973     -1.19729889     -0.08697838
H       3.16887490      0.44754535     -0.58949479
H       1.22676573     -1.69910204      0.41792396
H       1.42743748     -1.21471033     -1.26734596
H       0.69669586      1.09814704     -0.70296728
H       0.52802218      0.64946148      1.00068130
H      -1.22117132     -1.07418919      0.32032026
H      -2.07527073     -0.70460480     -1.79392957
H      -1.82324384      1.77903184     -0.66294270
H      -1.96737315      1.23122744      1.03510278
H      -3.92912124      1.14481797     -0.13394116
