43
CC(C)(COC(=O)c1ccccc1)COC(=O)c1ccccc1
C      -0.21472668      1.76406117      0.81587594
C      -0.20071550      0.48305607      1.67102489
C      -1.14200759      0.68335890      2.87224784
C      -0.66380644     -0.72660322      0.82568285
O      -2.02446539     -0.56265209      0.38595923
C      -2.21665990     -0.32324860     -0.93464835
O      -1.34571524     -0.22975801     -1.78486150
C      -3.66820272     -0.17290557     -1.22900631
C      -4.05205564      0.07341171     -2.55465163
C      -5.40115768      0.22415977     -2.88165352
C      -6.37382801      0.13025630     -1.88736531
C      -6.00113410     -0.11396962     -0.56594231
C      -4.65226227     -0.26543965     -0.23467957
C       1.22816101      0.21971219      2.19588936
O       2.12522823      0.03779919      1.09150006
C       3.41432523     -0.19644348      1.43843583
O       3.84307877     -0.26479401      2.57928912
C       4.25678525     -0.36603549      0.22341879
C       5.62726875     -0.60382862      0.39695575
C       6.45908504     -0.77101766     -0.71205964
C       5.92711438     -0.70206376     -1.99898989
C       4.56467611     -0.46618130     -2.18051552
C       3.72878234     -0.29807125     -1.07382567
H       0.19246559      2.61359686      1.37592292
H      -1.23160520      2.03339344      0.51044916
H       0.38540939      1.64661265     -0.09302234
H      -0.80410204      1.51320610      3.50335135
H      -2.16463251      0.91012913      2.55131199
H      -1.17972384     -0.21591734      3.49716595
H      -0.64688234     -1.63606314      1.43824668
H       0.01379795     -0.91070280     -0.01617070
H      -3.30048000      0.14901920     -3.33841374
H      -5.69182485      0.41487255     -3.91186322
H      -7.42430485      0.24778968     -2.14276029
H      -6.76160135     -0.18655291      0.20790649
H      -4.38479387     -0.45455180      0.80184101
H       1.24016664     -0.68324917      2.81956199
H       1.57153540      1.06915465      2.80002153
H       6.05207372     -0.65961361      1.39753215
H       7.52131777     -0.95502169     -0.57103051
H       6.57515575     -0.83249166     -2.86239774
H       4.15075353     -0.41303222     -3.18479723
H       2.66950716     -0.11560726     -1.24093591
