20
OCNC(=S)c1ccccc1
O      -3.89526052     -0.35042928      0.68822860
C      -3.10204847      0.78369501      0.43897488
N      -1.76770777      0.28074492      0.29937161
C      -0.68523575      0.98980482     -0.19499144
S      -0.78918685      2.48866678     -0.94474888
C       0.61688992      0.28652811     -0.01210763
C       1.70188418      0.93251688      0.59311131
C       2.90654472      0.24993816      0.77210112
C       3.02990193     -1.07401441      0.34959726
C       1.95113413     -1.72069299     -0.25377090
C       0.74397757     -1.04381084     -0.43463082
H      -3.85304066     -0.86965665     -0.13179594
H      -3.44617828      1.29128819     -0.46588846
H      -3.14555689      1.46250959      1.29488121
H      -1.57259283     -0.51741652      0.89105951
H       1.61789989      1.96144252      0.93425330
H       3.74974110      0.75171677      1.24070343
H       3.97085808     -1.60147288      0.48784060
H       2.05356553     -2.75020777     -0.58802212
H      -0.08558902     -1.55115040     -0.92047143
