55
CC(C)N1CCC(N(C(=O)Cc2ccccc2)c2ccc(Cl)cc2)CC1.Cl
C       4.51140844      1.43152525     -2.19491698
C       4.26181671      0.09222564     -1.56639764
C       5.30822027     -0.18302843     -0.50981781
N       2.95394597     -0.07593449     -1.05375423
C       1.88821272     -0.01885286     -1.98590904
C       0.75168086     -0.87054208     -1.40115911
C       0.38336984     -0.21521944     -0.06949707
N      -0.83557496     -0.71211779      0.47194823
C      -1.95672843      0.12866915      0.60723683
O      -3.00541532     -0.32405837      1.11045340
C      -1.93735983      1.54434421      0.16925113
C      -3.21399524      2.22983499      0.41112318
C      -3.46068387      2.92976394      1.57154782
C      -4.68848699      3.56917457      1.77277912
C      -5.67375154      3.50772640      0.80785575
C      -5.43637680      2.80286649     -0.37026523
C      -4.22041610      2.18686434     -0.53568510
C      -0.92442665     -2.06376978      0.88609113
C      -0.76329558     -2.46555806      2.17623207
C      -0.87106974     -3.80920841      2.47407256
C      -1.13540217     -4.76948980      1.52120874
Cl     -1.27555196     -6.47063204      1.87427211
C      -1.29737482     -4.35668547      0.21728836
C      -1.19354877     -3.01274005     -0.10383301
C       1.57569735     -0.35612313      0.85267610
C       2.69400770      0.45301132      0.23387013
Cl      0.68921965      0.00000000      0.00000000
H       3.76868918      2.14078429     -1.72383335
H       5.50568096      1.83230311     -1.96740928
H       4.29698557      1.40790794     -3.29630654
H       4.42235430     -0.68785585     -2.36229098
H       6.23482153     -0.55540067     -1.02949671
H       4.98811480     -0.95990407      0.21663723
H       5.61873714      0.72542651      0.04005767
H       2.21577927     -0.35753518     -2.96439943
H       1.48601735      0.99509557     -2.06617003
H      -0.13186562     -0.78292255     -2.07250261
H       1.08415890     -1.91979547     -1.27513032
H       0.27335607      0.87870150     -0.33085061
H      -1.77558861      1.58213329     -0.94867382
H      -1.08093973      2.11625924      0.59172097
H      -2.71689667      3.00256842      2.35055082
H      -4.88327717      4.11848049      2.68560018
H      -6.62474229      3.99569175      0.94987123
H      -6.20423839      2.74118357     -1.14851579
H      -4.03636198      1.63867067     -1.44902132
H      -0.55493956     -1.71403701      2.92497725
H      -0.74141354     -4.11949489      3.50224669
H      -1.50804809     -5.03176409     -0.60615339
H      -1.31954710     -2.68616195     -1.12399003
H       1.34288336     -0.03363544      1.88641552
H       1.94466777     -1.41295932      0.88117921
H       3.62321238      0.42255739      0.83137002
H       2.33349909      1.49165663      0.13744600
H      -0.68921965      0.00000000      0.00000000
