8
C#CCO
C       1.76796315     -0.58448283      0.05912826
C       0.59024406     -0.37340338     -0.04627404
C      -0.84485354     -0.11240052     -0.17302241
O      -1.20706674      1.00265422      0.62927710
H       2.81205284     -0.77436010      0.15819867
H      -1.11551169      0.10691957     -1.21019034
H      -1.43142717     -0.97436692      0.15742595
H      -0.57140090      1.70943995      0.42545681
