19
C/C=C/C(O)CC
C       2.90993724      0.19024011      0.40310009
C       1.48432007     -0.11725990      0.72857285
C       0.57924676     -0.51788374     -0.17869280
C      -0.85528654     -0.82908058      0.13552906
O      -1.07245341     -2.19490405     -0.20672093
C      -1.84584744      0.02330332     -0.66214321
C      -1.78765474      1.50236832     -0.31190834
H       3.57254670     -0.46252689      0.97946403
H       3.13189452      0.04994826     -0.65949162
H       3.13590084      1.22839634      0.66491200
H       1.19284329      0.00396791      1.76978272
H       0.87455172     -0.63717103     -1.21962415
H      -1.06060392     -0.72329754      1.20720419
H      -0.38176238     -2.70816387      0.24656442
H      -2.86221546     -0.34844374     -0.47941871
H      -1.67661970     -0.10692951     -1.73889203
H      -0.81859561      1.93888330     -0.57215135
H      -1.96156657      1.65875353      0.75744927
H      -2.55863537      2.04979975     -0.86353549
