12
NC(=O)NCO
N      -2.10487024      0.32409027      0.20545913
C      -0.99642984     -0.33475678     -0.21657072
O      -1.06253607     -1.31198253     -0.94487056
N       0.14866108      0.22853919      0.26064330
C       1.38071470     -0.45348280      0.04473252
O       2.38306217      0.44437822      0.45266202
H      -2.95102775     -0.00555441     -0.24376035
H      -2.02906140      1.32987027      0.25714034
H       0.05024108      0.62723659      1.18161218
H       1.41561862     -1.35726956      0.65977868
H       1.50831752     -0.71624509     -1.00994924
H       2.25731013      1.22517662     -0.11145319
