59
CC(C)c1cc(Oc2ccccc2)cc(C(C)C)c1NC(=S)NC(C)(C)C
C      -0.94189825      3.44821886     -0.34645524
C      -0.97047098      2.36638032     -1.43244308
C      -0.66055942      2.97683250     -2.80393785
C      -0.02230278      1.20390792     -1.13844400
C       1.32828350      1.48928539     -0.86317726
C       2.26638919      0.47059295     -0.73315018
O       3.57199621      0.84559529     -0.51266849
C       4.26726643      0.16462875      0.46067180
C       3.74792990     -0.06655879      1.73705896
C       4.52094497     -0.73332819      2.68842069
C       5.81253496     -1.15417481      2.36884348
C       6.33713636     -0.90249635      1.10077758
C       5.56675015     -0.23523416      0.14814163
C       1.88922932     -0.85707918     -0.92050118
C       0.54844127     -1.19814453     -1.17422791
C       0.17353322     -2.67097119     -1.32960472
C       0.74431789     -3.55674612     -0.21366263
C       0.59872711     -3.19038173     -2.70505088
C      -0.40897508     -0.15599955     -1.26442877
N      -1.74150732     -0.49622658     -1.57678677
C      -2.86724887     -0.33501907     -0.80325404
S      -4.29392422     -0.90646274     -1.45705832
N      -2.68145051      0.22895612      0.42929109
C      -3.62355700      0.50733698      1.54130954
C      -4.26477669     -0.78035327      2.08365094
C      -2.80668498      1.13384330      2.69319080
C      -4.69908008      1.52442570      1.12947316
H      -1.09156686      3.01400952      0.64639095
H       0.00642276      3.99679797     -0.33277407
H      -1.73845836      4.18046034     -0.51718596
H      -2.00297678      2.01246044     -1.47887065
H      -1.38387064      3.76243469     -3.04793290
H       0.33988085      3.42306014     -2.83565400
H      -0.71106271      2.21781226     -3.59233803
H       1.67395964      2.51747300     -0.78590911
H       2.75058825      0.27409197      1.99982177
H       4.11903154     -0.91916761      3.68076894
H       6.41448080     -1.67184948      3.11185458
H       7.34697938     -1.22220777      0.85565972
H       5.97639890     -0.03150887     -0.83725741
H       2.65285658     -1.62960064     -0.87730257
H      -0.91331465     -2.78563741     -1.25386923
H       0.47896372     -3.16229317      0.77379864
H       0.33760022     -4.57161863     -0.28916654
H       1.83468736     -3.64073698     -0.26327972
H       0.15240990     -2.59135734     -3.50754036
H       0.27561277     -4.22797605     -2.84244284
H       1.68708270     -3.15930774     -2.83134146
H      -1.87254551     -1.22103841     -2.27409171
H      -1.71065524      0.39586393      0.65693489
H      -3.50123181     -1.53141748      2.31657668
H      -4.96380757     -1.23114075      1.37535435
H      -4.83134750     -0.58225330      3.00114206
H      -3.43882228      1.35540146      3.56028938
H      -2.33283038      2.07037625      2.38073292
H      -2.00859362      0.45872577      3.02358741
H      -5.29860702      1.83605475      1.99244704
H      -4.24338884      2.42224395      0.69580775
H      -5.39491987      1.12101742      0.38981113
