29
Cc1cc2cc3c(C)cc(=O)oc3c(C)c2o1
C       4.73021115     -0.55571053     -0.44736661
C       3.26238001     -0.55495455     -0.29527104
C       2.32371962     -1.54848684     -0.12115309
C       1.06078576     -0.90267846     -0.04016899
C      -0.27014609     -1.33117201      0.13092549
C      -1.30593193     -0.38149675      0.16486891
C      -2.71877866     -0.75705608      0.34036216
C      -3.10538539     -2.19950529      0.49196604
C      -3.64434448      0.21274350      0.36132319
C      -3.32731136      1.63959033      0.21813889
O      -4.21323886      2.48560224      0.24456274
O      -1.99359559      1.96254850      0.05491561
C      -0.97550611      0.97506695      0.02573091
C       0.33980647      1.45500241     -0.14772118
C       0.64061733      2.91326679     -0.29165349
C       1.31655432      0.45685605     -0.17179706
O       2.65607936      0.66368156     -0.32664304
H       5.12839931     -1.57435241     -0.40990423
H       5.01593091     -0.11295768     -1.40641404
H       5.19847036      0.02315820      0.35455768
H       2.52384760     -2.60879362     -0.05991891
H      -0.46529500     -2.39341997      0.23328449
H      -2.81376102     -2.77571627     -0.39258325
H      -2.63047131     -2.63900383      1.37558872
H      -4.18768855     -2.32095395      0.61354857
H      -4.69961398     -0.00216970      0.48732923
H       1.71302939      3.09263819     -0.41667809
H       0.31229842      3.45752753      0.59959894
H       0.12893834      3.32074565     -1.16942853
