35
CC(C)(C)NCC(O)c1cc(O)cc(O)c1
C       3.06270692     -1.60759743     -0.31339232
C       2.92152141     -0.22900238      0.35236709
C       4.21857499      0.56699802      0.10764037
C       2.73753963     -0.39356156      1.86984148
N       1.83266577      0.56923282     -0.24750168
C       0.48136204     -0.02231519     -0.15308568
C      -0.56010549      0.98747257     -0.69984292
O      -0.37733315      2.23979477     -0.02619086
C      -1.97651232      0.48528599     -0.53023040
C      -2.78719114      0.90405930      0.53682670
C      -4.08057400      0.40196245      0.67201527
O      -4.88850119      0.79977471      1.69734476
C      -4.59073840     -0.52147748     -0.23206674
C      -3.78950695     -0.93945754     -1.28718192
O      -4.23718773     -1.84453822     -2.20452118
C      -2.49628612     -0.44745855     -1.44284451
H       3.15815133     -1.51717831     -1.40160682
H       2.20411018     -2.25390223     -0.10214903
H       3.95521454     -2.12876618      0.05230964
H       4.17004654      1.56179263      0.56665671
H       5.08627222      0.05018946      0.53411420
H       4.41187639      0.70204814     -0.96334962
H       3.62701527     -0.84534886      2.32467580
H       2.57522424      0.57421864      2.35841881
H       1.89030350     -1.04259057      2.11470975
H       2.04714998      0.72453133     -1.23534944
H       0.24016004     -0.22960102      0.89488524
H       0.41886036     -0.95938082     -0.71624429
H      -0.37367517      1.18023581     -1.76372443
H       0.58707874      2.28030519      0.14015740
H      -2.39797720      1.62470087      1.25156002
H      -4.41816195      1.48078614      2.20737873
H      -5.59981952     -0.89528453     -0.09916001
H      -5.15420764     -2.07631012     -1.98084865
H      -1.89805613     -0.79525757     -2.28161145
