22
C1=C\CCCCCC/1
C      -0.39730351      1.82894601      0.05573301
C      -1.57039634      1.18273014      0.11835547
C      -1.97800253     -0.17341625     -0.37929486
C      -0.90936397     -1.18169467     -0.80193039
C       0.09993697     -1.52251380      0.29926052
C       1.51216910     -1.00779188      0.02224939
C       1.73158118      0.48660109      0.26322104
C       0.87842881      1.40651117     -0.60696242
H      -0.35220186      2.81198495      0.52641197
H      -2.37990416      1.70867401      0.62804170
H      -2.57258124     -0.64004061      0.41786099
H      -2.66857060     -0.02704287     -1.21929656
H      -1.43874116     -2.10736286     -1.06671203
H      -0.41682679     -0.86424998     -1.72647299
H      -0.24406736     -1.19149776      1.28590390
H       0.16615874     -2.61724665      0.35537247
H       2.20409028     -1.55062444      0.67920308
H       1.80724316     -1.26323660     -1.00310768
H       2.78711631      0.69567837      0.04526318
H       1.59053806      0.71412481      1.32741952
H       1.45136645      2.32534046     -0.79233107
H       0.69933043      0.98612735     -1.60100046
