23
Cc1ncc(CO)c(C=O)c1O.[Cl-].[H+]
C       3.16249017     -0.69380095      0.06820766
C       1.65952164     -0.54964126     -0.04822302
N       0.91760195     -1.65503001     -0.42167817
C      -0.42056596     -1.54433536     -0.53000653
C      -1.09525654     -0.37292875     -0.29092448
C      -2.55246183     -0.25489805     -0.66588804
O      -3.29348299     -1.00572834      0.35188253
C      -0.35479528      0.70875081      0.08532903
C      -0.94200952      1.94658321      0.54234949
O      -2.26705632      1.92360650      0.33004831
C       1.04014836      0.66326268      0.21885115
O       1.76327516      1.73072651      0.58147521
Cl      0.00000000      0.00000000      0.00000000
H       0.00000000      0.00000000      0.00000000
H       3.55690618      0.26471987      0.51189075
H       3.42995130     -1.51786528      0.79815069
H       3.62377421     -0.87489305     -0.91652910
H      -1.07880307     -2.36751454     -0.86730758
H      -2.64657041     -1.06263188     -1.57809671
H      -2.96246760      0.63149615     -0.94693363
H      -2.55954635     -1.45234847      0.94058377
H      -0.67775154      2.82933416      0.97573846
H       1.69709842      2.65313606      0.86108020
