40
CCCCCNCCOC(=O)c1ccc(N)cc1
C       5.91074607      1.50312526     -1.69849519
C       4.53614734      1.06048500     -1.22033289
C       4.39818764     -0.46207088     -1.25431063
C       2.99368026     -0.95482739     -0.89149567
C       2.60893623     -0.67041240      0.56262419
N       1.30187542     -1.26298955      0.84581427
C       0.89015329     -1.01017866      2.23361441
C      -0.53137504     -1.52623481      2.48590624
O      -1.45006821     -0.76512514      1.68278586
C      -2.75014649     -1.10929200      1.85408380
O      -3.16781631     -1.96476471      2.61835091
C      -3.62871492     -0.29398401      0.97197949
C      -5.00839910     -0.52538135      1.01443023
C      -5.87403656      0.21802480      0.20525363
C      -5.37600925      1.17019759     -0.68691818
N      -6.25272977      1.99123299     -1.40282701
C      -4.00498610      1.43911350     -0.68331391
C      -3.13061915      0.70126871      0.12311090
H       6.69966030      1.08366765     -1.06601852
H       6.08975281      1.18288700     -2.72987221
H       5.99091314      2.59413405     -1.66332385
H       4.38317010      1.43470116     -0.20259157
H       3.76997120      1.51882096     -1.85612412
H       5.13334506     -0.91634500     -0.57884799
H       4.63486221     -0.82008607     -2.26410594
H       2.26087464     -0.49995896     -1.57005327
H       2.95818920     -2.03763325     -1.06913542
H       3.36574491     -1.09839708      1.23025457
H       2.57063273      0.41049034      0.73564143
H       0.59722331     -0.87107496      0.21914321
H       0.91443072      0.06781376      2.43358743
H       1.58027947     -1.51120841      2.92123316
H      -0.60586228     -2.58951565      2.22769496
H      -0.77882336     -1.39037466      3.54529819
H      -5.41945024     -1.27600597      1.68689893
H      -6.94442459      0.04333180      0.27948106
H      -7.15260362      1.56338578     -1.59848101
H      -5.84197394      2.41644822     -2.22809710
H      -3.60242779      2.22992740     -1.31138687
H      -2.06830935      0.92680494      0.08613189
