35
F[B-](F)(F)F.F[B-](F)(F)F.F[N+]12CC[N+](CCl)(CC1)CC2
F       0.98362305      0.62166029     -0.87363600
B      -0.00071329      0.00032390     -0.00084156
F      -0.92124116     -0.82769205     -0.75867486
F       0.70371030     -0.83292457      0.96458389
F      -0.76537890      1.03863242      0.66856853
F      -0.90667083     -0.17305154     -1.12404923
B       0.00324809     -0.00958543      0.00533279
F       1.10534344     -0.95489199     -0.08046167
F      -0.76291382     -0.18565024      1.21728097
F       0.56099312      1.32317920     -0.01810286
F      -2.94919108      0.22502928      0.29847042
N      -1.62351287      0.11671840      0.11472290
C      -1.01097719      0.07288685      1.42809618
C       0.51032460      0.03158047      1.33825734
N       0.84180583     -0.14041292     -0.05226142
C       2.25098499     -0.28681825     -0.28547078
Cl      3.18172928      1.15992196      0.11886896
C       0.39401185      1.04682428     -0.75972435
C      -1.08333017      1.30657327     -0.55903763
C       0.18398785     -1.33856415     -0.51630089
C      -1.27548367     -1.01074672     -0.70822378
H      -1.40951301     -0.71884865      2.06818134
H      -1.25437220      1.06376796      1.90666256
H       0.86291777     -0.90164751      1.86437361
H       0.99096360      0.89577581      1.79204076
H       2.38047453     -0.46007587     -1.38338651
H       2.70601758     -1.15407728      0.21580389
H       0.67777717      1.04597318     -1.82052557
H       0.94416160      1.90397644     -0.29153128
H      -1.26271016      2.17679631      0.11403015
H      -1.63006077      1.40037485     -1.51956630
H       0.66151379     -1.79116798     -1.38449073
H       0.22340792     -2.08387834      0.32889895
H      -1.92435597     -1.88114783     -0.53701923
H      -1.38657128     -0.67881359     -1.77086857
