46
CCCCCCCCC(CC)(CC)C(=O)NO
C       5.31175607      1.17566157      0.73851444
C       4.65405504      0.26521717     -0.28725969
C       3.39207620      0.90243477     -0.86936751
C       2.74806866      0.06943723     -1.98154395
C       2.28809694     -1.33590271     -1.57950713
C       1.32126666     -1.40617129     -0.39368275
C       0.01483641     -0.64096682     -0.62732847
C      -0.94970217     -0.82771264      0.55507300
C      -2.28800988     -0.02772613      0.45756098
C      -3.09105082     -0.51932474     -0.78519137
C      -4.52434633     -0.00323352     -0.89787391
C      -3.09531701     -0.20833910      1.77989475
C      -3.55168673     -1.62969531      2.09308558
C      -1.95590490      1.47682948      0.29432823
O      -2.22004047      2.13427885     -0.71331793
N      -1.30280910      2.06866277      1.35422944
O      -0.87950899      3.40089019      1.12199662
H       6.21069125      0.70153116      1.14478699
H       5.60530704      2.12865278      0.28690326
H       4.63168219      1.38410572      1.57064854
H       5.36898130      0.05326069     -1.09057140
H       4.41261481     -0.68799445      0.19494075
H       2.66629921      1.08989889     -0.06973690
H       3.64786936      1.88448607     -1.28706902
H       3.46192945     -0.02720176     -2.80947956
H       1.89576232      0.62792139     -2.38661692
H       1.81264219     -1.80331303     -2.45120211
H       3.16527138     -1.95296536     -1.35108228
H       1.81230208     -1.03572257      0.51343041
H       1.08888996     -2.46239786     -0.20783476
H      -0.44775047     -1.00240993     -1.55187113
H       0.23410570      0.42246272     -0.76236110
H      -1.17250775     -1.89891079      0.63754255
H      -0.42363561     -0.55742208      1.47953120
H      -2.56861175     -0.22631277     -1.70442321
H      -3.12392757     -1.61602076     -0.79442062
H      -4.96053382     -0.33192160     -1.84721686
H      -5.16122092     -0.39151791     -0.09865294
H      -4.56982434      1.08873486     -0.87270342
H      -3.97324915      0.45013596      1.76841455
H      -2.49435890      0.13199850      2.63311865
H      -4.14335295     -1.63157907      3.01479455
H      -2.70141760     -2.29870421      2.25223750
H      -4.17758988     -2.04734199      1.30072169
H      -0.73979299      1.53876783      2.00963626
H      -1.22835412      3.57543978      0.21892504
