18
COc1cccc([N+](=O)[O-])c1
C       2.92309204     -0.28127641      0.13289728
O       2.08471287      0.85455907     -0.04455953
C       0.73393242      0.64596545     -0.00406169
C      -0.03746939      1.79955695     -0.18469401
C      -1.43274147      1.74234646     -0.16819806
C      -2.07409937      0.52194691      0.03055893
C      -1.30408977     -0.63451092      0.21165835
N      -1.97467353     -1.92386400      0.42161255
O      -3.21384159     -1.93589036      0.43020893
O      -1.26200829     -2.92591473      0.57814141
C       0.09920742     -0.57969198      0.19550174
H       3.96185025      0.05749802      0.07320146
H       2.76547861     -1.01574711     -0.66377066
H       2.77484852     -0.73004492      1.12062159
H       0.45824098      2.75610162     -0.34044067
H      -2.01450514      2.65015377     -0.31047837
H      -3.16155450      0.48829676      0.04166382
H       0.67361994     -1.48948458      0.33813763
