20
COC(=O)C(=O)c1ccccc1
C       3.83604999     -0.42787935     -0.28237453
O       2.63044041      0.28429317     -0.55466497
C       1.82535416      0.42113504      0.51956636
O       1.99037456     -0.02470008      1.64049534
C       0.59377486      1.21545497      0.12066057
O       0.71625865      2.40809467     -0.13572320
C      -0.71932603      0.52464898      0.03945562
C      -1.83308386      1.26247883     -0.38639039
C      -3.08562415      0.65439958     -0.48594477
C      -3.23317892     -0.69245121     -0.16044983
C      -2.13076247     -1.43242437      0.26545364
C      -0.87428233     -0.82856209      0.36610004
H       3.61274432     -1.45563759      0.02081285
H       4.42739826     -0.45878942     -1.20167784
H       4.42067243      0.08464001      0.48821631
H      -1.73064909      2.31569512     -0.64332493
H      -3.94511589      1.23282685     -0.81630385
H      -4.20948493     -1.16559122     -0.23606115
H      -2.25095607     -2.48228396      0.52356466
H      -0.04060391     -1.43534792      0.71007133
