38
CC(C)(C)[C@H](O)/C(=C\c1ccc(Cl)cc1)n1cncn1
C      -1.83551541     -2.25175063      1.06108768
C      -1.59954457     -0.85223269      0.44559744
C      -2.84264410     -0.00141914      0.75618379
C      -1.50207759     -1.01854424     -1.08244432
C      -0.26373931     -0.26347066      1.02960413
O      -0.30091613     -0.24168976      2.46095149
C       0.22830608      1.09292793      0.49196665
C       1.20999726      1.18467684     -0.44117516
C       1.95684604      0.08031190     -1.05606657
C       1.77362671     -0.20766810     -2.41344929
C       2.49510464     -1.24098374     -3.01709966
C       3.40835437     -1.97897235     -2.26636614
Cl      4.29545797     -3.25100070     -3.01045199
C       3.61014709     -1.68990022     -0.91842571
C       2.88914978     -0.65645619     -0.31491922
N      -0.36617203      2.25332381      1.05897286
C      -0.16591312      3.58004878      0.69039384
N      -0.86292883      4.40559486      1.43322369
C      -1.49917208      3.56728448      2.28344632
N      -1.24529022      2.27202280      2.11214387
H      -1.97959357     -2.19572875      2.14562118
H      -2.72751699     -2.72699887      0.63662354
H      -0.98571096     -2.91630934      0.86839680
H      -3.75251774     -0.48915135      0.38553791
H      -2.79393190      0.97817861      0.27107622
H      -2.97574457      0.14320107      1.83299107
H      -1.38070783     -0.05471032     -1.58731104
H      -0.65910464     -1.66150880     -1.35619587
H      -2.40875586     -1.48299921     -1.48776103
H       0.50143483     -1.01624592      0.81757312
H      -0.87537504      0.51014245      2.71865997
H       1.55675497      2.14631357     -0.81211286
H       1.06466082      0.36230140     -3.00998740
H       2.34114589     -1.46361146     -4.06969124
H       4.32528346     -2.26154180     -0.33267683
H       3.05763386     -0.43564343      0.73770339
H       0.48351113      3.87383264     -0.12002287
H      -2.17454242      3.90837655      3.05840223
