25
CCCCC(C=O)CC
C       3.89970926      0.29360920     -0.15517454
C       2.56511072      0.86804516      0.29256445
C       1.40065468     -0.03317291     -0.11975022
C       0.05804653      0.55177209      0.33413510
C      -1.13803912     -0.30591179     -0.11012352
C      -1.11556170     -1.62426414      0.63673922
O      -1.02829211     -2.71291544      0.07699934
C      -2.45878882      0.42159627      0.18369251
C      -3.66656105     -0.29105778     -0.41202612
H       3.93585830      0.18812754     -1.24416317
H       4.71783378      0.95370535      0.14953973
H       4.07294600     -0.69061519      0.29162218
H       2.57351635      0.99038178      1.38190027
H       2.43813063      1.86497912     -0.14523655
H       1.54302133     -1.02937332      0.31508888
H       1.39841058     -0.15298658     -1.20997892
H      -0.04447589      1.56024398     -0.08612768
H       0.06007415      0.65929078      1.42651445
H      -1.06353363     -0.51197333     -1.18483353
H      -1.18319974     -1.55934692      1.73680979
H      -2.60584503      0.52608811      1.26581187
H      -2.42013589      1.43492019     -0.23413720
H      -3.55997286     -0.40347594     -1.49565920
H      -3.80262198     -1.28438944      0.02633434
H      -4.57628447      0.28672321     -0.21975627
