20
O=C1Nc2cccc3cccc1c23
O      -1.81631941     -3.11053814     -0.18394481
C      -0.98352039     -2.23048386     -0.11069382
N       0.39673794     -2.35983441     -0.02155044
C       0.97237489     -1.09413083      0.04244229
C       2.28982876     -0.71020709      0.13784697
C       2.55841430      0.67076391      0.18374102
C       1.51694135      1.62999687      0.13397834
C       0.17117168      1.21599098      0.03607794
C      -1.00562390      1.99486477     -0.02636148
C      -2.27447873      1.37180094     -0.12338545
C      -2.40170813     -0.02852506     -0.16028607
C      -1.24263097     -0.77357321     -0.09833555
C      -0.02326365     -0.15839152     -0.00476298
H       0.87997879     -3.24437841     -0.00736947
H       3.09451403     -1.43508845      0.17663105
H       3.58952552      1.01165908      0.25922807
H       1.76107116      2.68890994      0.17171407
H      -0.94319565      3.08022837     -0.00017703
H      -3.16884752      1.99065758     -0.17027800
H      -3.37097007     -0.50972145     -0.23451465
