12
O=C(O)c1occ(Cl)c1Cl
O       2.40888516      1.25002491     -0.13539870
C       1.77730285      0.22248153      0.06212773
O       2.43469718     -0.91936120      0.36853474
C       0.35338795      0.03248499      0.01507391
O      -0.17267648     -1.21174096      0.26951576
C      -1.52140100     -1.11103154      0.15996184
C      -1.88242399      0.17428427     -0.16071319
Cl     -3.46134586      0.75154752     -0.39532300
C      -0.67741967      0.91489038     -0.25514015
Cl     -0.55952552      2.57054714     -0.63093955
H       3.37579298     -0.65136240      0.36665781
H      -2.07527360     -2.02276464      0.33564279
