26
O=S(=O)(O)c1ccc2c(S(=O)(=O)O)cccc2c1
O       4.51344341      0.88593869      0.35537674
S       3.90003512      0.42148231     -0.87060775
O       4.38680911     -0.73665723     -1.58303270
O       3.96578221      1.68788462     -1.86848501
C       2.17473758      0.17858667     -0.56409679
C       1.25767520      0.39787248     -1.58507905
C      -0.10488869      0.23078998     -1.32646752
C      -0.58375582     -0.15114957     -0.04468272
C      -1.95097399     -0.33893316      0.29878779
S      -3.22494975     -0.06731134     -0.90682818
O      -3.17520832      1.32254070     -1.30698054
O      -3.16189051     -1.14212944     -1.87091980
O      -4.62776701     -0.21701300     -0.12222872
C      -2.33987122     -0.73102426      1.58792231
C      -1.37676538     -0.93747848      2.56717951
C      -0.03001919     -0.75383670      2.26300356
C       0.37935929     -0.36691148      0.97685647
C       1.74650423     -0.19631741      0.70954179
H       4.55284558      2.35563281     -1.45450407
H       1.58743928      0.68874777     -2.58039546
H      -0.78870293      0.40336343     -2.15648975
H      -5.23117442      0.47318302     -0.47079084
H      -3.38650886     -0.88336514      1.84054422
H      -1.67131974     -1.24325750      3.56849439
H       0.70610834     -0.92225972      3.04816528
H       2.48305646     -0.35837805      1.49571685
