11
CCCBr
C      -1.32201026     -0.11615302     -0.24478856
C       0.00825809      0.57811460     -0.00147591
C       1.12327942     -0.43011786      0.21074247
Br      2.80464617      0.50173755      0.51798973
H      -1.27603092     -0.75086120     -1.13555457
H      -1.59994247     -0.74177750      0.60948271
H      -2.11406539      0.62400027     -0.39566323
H      -0.08354435      1.23294791      0.87345947
H       0.23777971      1.22393942     -0.85761593
H       1.27380206     -1.06548489     -0.66635607
H       0.94782794     -1.05634527      1.08977990
