8
CC(Cl)Cl
C      -0.80396110     -0.02287631     -0.14017320
C       0.66144778      0.02111757      0.25325141
Cl      1.50589599     -1.42425232     -0.34779759
Cl      1.43151036      1.48692046     -0.39626560
H      -1.33742770      0.85338926      0.24417469
H      -0.93250795     -0.04427805     -1.22824983
H      -1.29232006     -0.91196249      0.27356880
H       0.76736269      0.04194187      1.34149132
