20
NC(=O)c1ccccc1C(N)=O
N       2.46720253     -1.08272924     -0.37157118
C       1.90481764      0.08566388     -0.78536053
O       2.44064822      0.76438599     -1.65477355
C       0.65565068      0.55198262     -0.12978544
C       0.53529820      1.94277711      0.04198107
C      -0.61232018      2.50055249      0.61086076
C      -1.66276796      1.67766710      1.00689240
C      -1.56824219      0.29789096      0.82707108
C      -0.41413426     -0.26689386      0.25538414
C      -0.40922684     -1.72959821      0.07148033
N      -1.39874192     -2.23328300     -0.72272480
O       0.42691758     -2.44111019      0.61033928
H       3.28284027     -1.41785513     -0.86475809
H       2.00134995     -1.73403888      0.25983660
H       1.34596772      2.60010753     -0.27173622
H      -0.68256152      3.57818416      0.74154913
H      -2.55469105      2.11069429      1.45398887
H      -2.39226288     -0.33884018      1.14325881
H      -1.36899476     -3.22242371     -0.93589199
H      -1.99674924     -1.64313371     -1.28604068
