15
O=C(O)c1cc(=O)[nH]c(=O)[nH]1
O      -2.73881156     -1.09569816      0.61872316
C      -2.03458334     -0.12713403      0.40577149
O      -2.52369147      1.12878686      0.43186013
C      -0.58544703     -0.12927517      0.09358624
C       0.06665681     -1.29335766      0.02656943
C       1.50614673     -1.26656269     -0.28536378
O       2.15203682     -2.30488416     -0.35898344
N       2.06061490     -0.03349295     -0.48274702
C       1.38967067      1.15441102     -0.41317286
O       1.94257972      2.23194488     -0.60039297
N       0.06187065      1.06000241     -0.12104151
H      -3.47404296      1.00690956      0.64437925
H      -0.39530844     -2.25930716      0.18714447
H       3.04506663      0.00573465     -0.69739345
H      -0.47275812      1.92192260     -0.06025672
