24
CNC(=O)CSP(=O)(OC)OC
C      -2.00834800      2.18455243     -0.75280942
N      -2.12096572      0.91004884     -0.09036705
C      -1.87275363      0.80549533      1.26377588
O      -1.61757021      1.77218372      1.97679141
C      -1.93642269     -0.61161734      1.80614037
S      -0.27619492     -1.30160591      2.01144393
P       0.55569249     -1.07219649      0.11982011
O      -0.51728088     -1.20447401     -0.92884711
O       1.32140356      0.34634325      0.01472128
C       1.77145603      0.74151668     -1.26545959
O       1.75783659     -2.12593625     -0.11912727
C       2.81663641     -2.16895499      0.81588453
H      -2.43113764      2.09402181     -1.75581853
H      -2.54706134      2.94958719     -0.18712071
H      -0.95196845      2.45797458     -0.81741286
H      -1.95741268      0.07693542     -0.65897661
H      -2.45013946     -0.59137224      2.77219379
H      -2.51941786     -1.25278290      1.13773027
H       0.92035561      0.89066996     -1.93495741
H       2.31337694      1.68565865     -1.16953998
H       2.44545136     -0.01127198     -1.68261856
H       3.65483341     -2.70840999      0.36738901
H       2.49860276     -2.70384272      1.71415271
H       3.15102833     -1.16252306      1.08056545
