16
COc1cccc(Cl)c1Cl
C       2.70250718     -0.29396507     -0.21900347
O       1.62348618     -0.73591722      0.59352115
C       0.36270484     -0.28639931      0.29074110
C       0.07427953      0.58142481     -0.77018115
C      -1.23767952      0.99384525     -1.01350592
C      -2.27408459      0.54353610     -0.19965719
C      -2.00360150     -0.32242596      0.86283373
Cl     -3.34655175     -0.83537763      1.82594392
C      -0.68815207     -0.74105918      1.11344078
Cl     -0.33847447     -1.81834033      2.43228735
H       2.82065982      0.79298462     -0.16102296
H       2.57771519     -0.62527167     -1.25507528
H       3.61973789     -0.74894039      0.16711639
H       0.85060021      0.95715717     -1.42960881
H      -1.45083434      1.66814543     -1.84027311
H      -3.29231261      0.87060336     -0.39755655
