32
CN1c2ccccc2Sc2ccc(CC(=O)O)cc21
C      -0.64845739      1.83239837      0.87537078
N      -0.95369034      0.58458446      0.16832617
C      -2.31851456      0.26217766     -0.02954962
C      -3.31577372      1.25962262     -0.06240214
C      -4.66453079      0.95266049     -0.27065846
C      -5.05398521     -0.36525316     -0.46053485
C      -4.09179188     -1.37097768     -0.45009501
C      -2.73396693     -1.06726752     -0.24617245
S      -1.60188926     -2.44477124     -0.23227651
C      -0.02985487     -1.62356529     -0.41089904
C       1.06592187     -2.43142626     -0.75721641
C       2.33869656     -1.88570045     -0.91090868
C       2.53562953     -0.51721280     -0.72992913
C       3.90261806      0.09626966     -0.92719231
C       4.54048487      0.61848925      0.33784761
O       4.00873700      0.87009507      1.40587514
O       5.86083590      0.85412461      0.17357071
C       1.43465582      0.28474758     -0.37842822
C       0.13887217     -0.24380869     -0.18891130
H       0.25958977      1.75118125      1.48517494
H      -0.52337988      2.65625725      0.16416625
H      -1.43198317      2.10296157      1.59347914
H      -3.05683368      2.30898561      0.04681354
H      -5.40486197      1.74823510     -0.29120294
H      -6.09968902     -0.61165144     -0.62245851
H      -4.40570957     -2.40125575     -0.60330457
H       0.93054627     -3.50012258     -0.91040620
H       3.16471115     -2.53929966     -1.18145687
H       3.82348123      0.92415037     -1.64136510
H       4.57703796     -0.65133246     -1.36228806
H       6.14809628      1.19354779      1.04771940
H       1.60499782      1.35315628     -0.26818573
