54
N#CCCN(CCOC(=O)c1ccccc1)c1ccc(N=Nc2ccc([N+](=O)[O-])cc2)cc1
N      -3.63281778      0.53098320      3.97245910
C      -2.94158734      0.38636182      3.05184998
C      -2.07257127      0.20084768      1.88634985
C      -2.05916291      1.46538955      1.02471820
N      -1.31752957      1.25913546     -0.23319187
C      -2.10642001      1.30951865     -1.48437677
C      -2.78917255     -0.03392941     -1.78430588
O      -3.91478198     -0.26729978     -0.91415090
C      -5.05690821      0.37704195     -1.26370889
O      -5.18538033      1.11620453     -2.22660523
C      -6.14231882      0.09557323     -0.28665219
C      -5.98224163     -0.80189311      0.77777867
C      -7.02736079     -1.01194356      1.68033513
C      -8.23619183     -0.33536189      1.52081808
C      -8.40550455      0.55249145      0.45954480
C      -7.36190173      0.76881222     -0.44228237
C       0.06005743      1.07967381     -0.25700968
C       0.71464552      0.47701970     -1.34459298
C       2.10444750      0.28475476     -1.36895738
C       2.89817839      0.68416420     -0.29436109
N       4.29668969      0.53572316     -0.29687413
N       4.61441727     -0.67021057     -0.39540258
C       6.01296304     -0.81208468     -0.38532689
C       6.62032400     -1.53547813      0.64877545
C       8.00670645     -1.71959338      0.67617747
C       8.79322709     -1.18025841     -0.35010979
N      10.24948328     -1.36969346     -0.32833860
O      10.90752535     -0.88467953     -1.25958321
O      10.73377770     -2.00409368      0.61963845
C       8.20091778     -0.46516261     -1.39893840
C       6.81344233     -0.28952272     -1.41252071
C       2.27562364      1.29814290      0.78843938
C       0.88486660      1.48566665      0.80570596
H      -1.06167182     -0.04947544      2.22495063
H      -2.42297012     -0.65570302      1.30026168
H      -1.65478534      2.32111971      1.57920569
H      -3.09531281      1.75151621      0.79957369
H      -2.85366182      2.10669471     -1.39434226
H      -1.47560743      1.60150309     -2.33184556
H      -3.11473520     -0.07538982     -2.83073860
H      -2.09481523     -0.86728606     -1.63454334
H      -5.05252577     -1.34528056      0.92117299
H      -6.89698415     -1.70053614      2.51220837
H      -9.04682104     -0.49910405      2.22712126
H      -9.34845863      1.07976441      0.33649299
H      -7.50352454      1.46795464     -1.26440966
H       0.15710596      0.11749106     -2.20418864
H       2.56496009     -0.18443574     -2.23438691
H       6.00386678     -1.95475258      1.44119126
H       8.45053448     -2.28121834      1.49577989
H       8.79640668     -0.04311904     -2.20593297
H       6.34750430      0.26093747     -2.22715723
H       2.87376861      1.63993549      1.62924534
H       0.47228528      1.98857008      1.67504041
