37
CC[N+](CC)(CC)Cc1ccccc1.[Cl-]
C      -1.55980232      2.14700952     -1.38724830
C      -0.58065372      1.51823881     -0.40430854
N      -0.92532791      0.06111970      0.00626218
C      -0.73307705     -0.84587291     -1.23976167
C      -1.09175778     -2.30818289     -1.01411744
C      -2.38047518     -0.07376671      0.51636283
C      -2.75021482      0.89238384      1.63343396
C       0.05126637     -0.36548460      1.15553204
C       1.53301293     -0.35354551      0.85577784
C       2.29371906      0.80962337      1.06663887
C       3.66125669      0.82965597      0.78676549
C       4.29084494     -0.31371032      0.30402153
C       3.55731417     -1.48083699      0.11105825
C       2.18920367     -1.50378474      0.39026988
Cl      0.00000000      0.00000000      0.00000000
H      -2.58070559      2.18867810     -1.00088467
H      -1.25227618      3.17926053     -1.58839024
H      -1.57299795      1.62944868     -2.34952723
H       0.41452213      1.50124696     -0.86037833
H      -0.53191373      2.11398695      0.51318736
H      -1.38224225     -0.45606685     -2.02901893
H       0.30336058     -0.73889050     -1.57354923
H      -0.81650056     -2.88872372     -1.90142148
H      -0.57774812     -2.75375694     -0.16136430
H      -2.16874700     -2.44099764     -0.87392747
H      -3.04277819      0.06140831     -0.34527115
H      -2.50231093     -1.09838559      0.88307018
H      -3.80133702      0.74300527      1.90413732
H      -2.64168463      1.93960078      1.34228206
H      -2.16363795      0.72056388      2.53946693
H      -0.13233050      0.31744093      1.99237781
H      -0.26123100     -1.35910817      1.49574137
H       1.83862800      1.71467223      1.46460532
H       4.24252979      1.73420476      0.95543973
H       5.35831041     -0.30011442      0.09304537
H       4.05830356     -2.37844860     -0.24680080
H       1.65747809     -2.44187147      0.25204625
