15
COC(=O)CCS
C       2.83112952      0.23800489     -0.25649654
O       1.50835994      0.74853026     -0.08201944
C       0.53464479     -0.20406806     -0.12868962
O       0.72773042     -1.39972876     -0.29477310
C      -0.81261271      0.44325539      0.06761609
C      -1.92320783     -0.58873867     -0.05794182
S      -3.55019026      0.18990949      0.17535965
H       2.93204447     -0.23798566     -1.23689375
H       3.52811899      1.07909036     -0.20653269
H       3.07877922     -0.46550286      0.54452819
H      -0.92903522      1.22221739     -0.69486591
H      -0.82417317      0.90269249      1.06265668
H      -1.90512097     -1.05823266     -1.04724532
H      -1.80845890     -1.38221577      0.68810586
H      -3.38800826      0.51277216      1.46719174
