22
COC(=O)C(CO)NC(=O)C(Cl)Cl
C       3.38616491      0.36868457     -1.68770885
O       2.49192049     -0.13596985     -0.69417195
C       1.20633543      0.28730140     -0.83417092
O       0.80100268      1.03725027     -1.71656146
C       0.31726014     -0.28443085      0.26659644
C       0.07917438     -1.77925374      0.01714270
O      -0.19616447     -2.47725737      1.23258945
N      -0.93536948      0.48748387      0.29097930
C      -1.89276353      0.35394443      1.27240068
O      -1.77587099     -0.48838083      2.16443817
C      -3.10988055      1.27455180      1.17342316
Cl     -4.01385607      0.87980880     -0.30244092
Cl     -2.57153594      2.96693077      1.14673970
H       3.43472943      1.46100482     -1.63955037
H       4.38243133     -0.03215137     -1.48172251
H       3.07782114      0.03688236     -2.68404817
H       0.80273189     -0.11621012      1.23518676
H       0.95972584     -2.25889952     -0.42186205
H      -0.76045626     -1.94244031     -0.66747565
H      -0.86134419     -1.95286676      1.73056664
H      -1.06191476      1.18721119     -0.44029070
H      -3.76014142      1.12680646      2.03994054
