26
CC(C)OC(=O)c1ccc(N)cc1
C      -3.46196644      0.92923540     -0.30333409
C      -2.81834436     -0.37072501      0.16549901
C      -3.40813396     -1.56320093     -0.57753949
O      -1.40903102     -0.34383368     -0.12799527
C      -0.62098271      0.27662862      0.78503509
O      -0.99875295      0.80213239      1.82010703
C       0.80414452      0.23531896      0.35803000
C       1.76073478      0.83947297      1.18204863
C       3.11211943      0.82804896      0.82083622
C       3.53495116      0.17927876     -0.34147374
N       4.86665694      0.27516138     -0.75703316
C       2.57094346     -0.37083370     -1.19003343
C       1.21626279     -0.36406917     -0.83778666
H      -3.27018097      1.09895968     -1.36862686
H      -4.54372595      0.91752939     -0.13848281
H      -3.04200804      1.78766001      0.23088461
H      -2.98442701     -0.51452522      1.24012684
H      -2.92599846     -2.49100256     -0.25082429
H      -4.48471537     -1.64923404     -0.40174315
H      -3.23285002     -1.48125470     -1.65604136
H       1.45877197      1.33486973      2.10287261
H       3.83235985      1.33255052      1.45991419
H       5.15160468     -0.45161555     -1.40602759
H       5.52934952      0.39372419      0.00305103
H       2.86639087     -0.81223099     -2.13860176
H       0.49682729     -0.81804543     -1.51430527
