23
Clc1ccc(Cl)c(Oc2ccc(Cl)c(Cl)c2)c1
Cl      3.43933799      2.13748387      1.41366860
C       2.86000024      0.75869912      0.56415174
C       3.63323513     -0.40162987      0.52085609
C       3.17135540     -1.51961827     -0.17862416
C       1.93477995     -1.47491001     -0.82622342
Cl      1.39697738     -2.87372307     -1.67967682
C       1.15311097     -0.31550229     -0.76059205
O      -0.04711830     -0.27140545     -1.43594216
C      -1.16854764      0.03096180     -0.69628757
C      -2.08827542      0.90029467     -1.28290920
C      -3.26354045      1.23179305     -0.60633752
C      -3.52743649      0.68196228      0.65202768
Cl     -4.99860793      1.13700099      1.43472890
C      -2.61346740     -0.20886698      1.22859809
Cl     -2.88083569     -0.93765349      2.77276626
C      -1.43635773     -0.54069623      0.55018056
C       1.62476862      0.81240187     -0.07889191
H       4.59720305     -0.44010097      1.02272221
H       3.78074783     -2.41944851     -0.21662281
H      -1.88967076      1.32224953     -2.26544858
H      -3.97182613      1.91632263     -1.06745653
H      -0.74294611     -1.25146820      0.99124614
H       1.03711350      1.72585351     -0.05593352
