19
O=C(O)/C=C(\Cl)c1ccccc1
O       3.85516503      1.19704112      1.07075453
C       3.25604198      0.88357870      0.06365853
O       3.86308176      0.87546630     -1.13693934
C       1.85639146      0.47130667     -0.09873277
C       0.95948997      0.34834322      0.89012729
Cl      1.28099309      0.66052934      2.55676904
C      -0.41652508     -0.07174520      0.57932787
C      -0.67851403     -1.36626788      0.10730250
C      -1.98433048     -1.75741322     -0.19658930
C      -3.03797070     -0.85993572     -0.03172593
C      -2.78926834      0.42831178      0.43868785
C      -1.48444985      0.82169350      0.74347624
H       4.77858280      1.16073835     -0.93170894
H       1.56415429      0.26365986     -1.12365770
H       0.13034435     -2.08302155     -0.01761572
H      -2.17992353     -2.76398157     -0.55775765
H      -4.05457877     -1.16591583     -0.26598691
H      -3.61152076      1.12705028      0.57109099
H      -1.30716321      1.83056183      1.11083359
