33
N#Cc1c(N)nc2nc(Cc3ccccc3)ncc2c1N
N      -6.40744203     -0.56358345      0.98809715
C      -5.30196168     -0.49674216      0.63847850
C      -3.93866757     -0.36812727      0.22380881
C      -3.36272444     -1.33477218     -0.59441228
N      -4.04055343     -2.48197282     -1.00496162
N      -2.08769944     -1.26551296     -1.01419672
C      -1.33129937     -0.22003474     -0.68842104
N      -0.10044652     -0.20129945     -1.18239720
C       0.69008745      0.84768064     -0.90007875
C       2.09872806      0.83122418     -1.44189546
C       3.09714434      0.20655141     -0.49418556
C       3.27837279     -1.18394062     -0.46916274
C       4.18925896     -1.76264401      0.41561895
C       4.92274325     -0.95944099      1.28690024
C       4.74290164      0.42263637      1.27818511
C       3.83210336      1.00392939      0.39466560
N       0.30989334      1.90238221     -0.16334530
C      -0.94041414      1.85419441      0.32674883
C      -1.82828214      0.80313367      0.11866463
C      -3.14654174      0.71108794      0.64507400
N      -3.69990899      1.77921393      1.39154820
H      -3.41735112     -3.00846394     -1.61572703
H      -4.93128479     -2.29306423     -1.45344618
H       2.40507345      1.85774165     -1.68036771
H       2.11524861      0.29103813     -2.39720200
H       2.70311310     -1.82419630     -1.13569754
H       4.32260453     -2.84121519      0.42750306
H       5.63058153     -1.41138715      1.97657163
H       5.30946827      1.04832707      1.96275254
H       3.69421904      2.08314079      0.40694384
H      -1.21495161      2.72695559      0.91100184
H      -3.04454468      2.28779707      1.97866530
H      -4.54746805      1.55936304      1.91514981
