30
CCCCCCc1ccccc1
C       5.01535740      0.64100046      0.85647343
C       3.97043885     -0.10606060      0.04312075
C       2.55298173      0.31148940      0.43379868
C       1.50496626     -0.44224299     -0.38662056
C       0.08630796     -0.02450637      0.00421922
C      -0.96043651     -0.77969581     -0.81768123
C      -2.36341464     -0.37508073     -0.44003499
C      -3.04590100     -1.04713409      0.58266847
C      -4.33805723     -0.66131494      0.94283552
C      -4.95745480      0.40159099      0.28803204
C      -4.28476777      1.08099166     -0.72591907
C      -2.99256848      0.69656511     -1.08741909
H       4.93650811      1.72139441      0.69877878
H       4.89730915      0.44003782      1.92605962
H       6.02134259      0.32710707      0.56088048
H       4.09732888     -1.18384277      0.19800195
H       4.13631021      0.09045178     -1.02251203
H       2.43267111      1.39094700      0.28093829
H       2.39369188      0.11671136      1.50139317
H       1.62526573     -1.52161170     -0.23338021
H       1.66425120     -0.24708487     -1.45410966
H      -0.07079055     -0.21512462      1.07346963
H      -0.03189818      1.05635822     -0.14434314
H      -0.84364027     -1.86179846     -0.67697959
H      -0.80494974     -0.59682561     -1.88855329
H      -2.57323777     -1.87538921      1.10549249
H      -4.86063886     -1.18956296      1.73582318
H      -5.96321404      0.70175161      0.56930498
H      -4.76577584      1.91202147     -1.23482758
H      -2.47798539      1.23885738     -1.87728323
