18
COc1ncnc2nccnc12
C      -3.05098568     -0.86783596     -0.16033940
O      -1.66600075     -1.14022943      0.01764804
C      -0.85461674     -0.01720102     -0.08059331
N      -1.44008131      1.17464704     -0.32585162
C      -0.60394172      2.20701804     -0.40736144
N       0.72079644      2.14946364     -0.26914672
C       1.26091217      0.95668240     -0.02816172
N       2.59131410      0.91222161      0.10853930
C       3.16631645     -0.28655995      0.35387317
C       2.43315292     -1.44456747      0.46525419
N       1.09516258     -1.44019820      0.33414386
C       0.51088972     -0.22451328      0.08523902
H      -3.25189846     -0.47083008     -1.16135283
H      -3.42501577     -0.19035418      0.61498424
H      -3.59198486     -1.81413415     -0.06364817
H      -1.03656429      3.18242482     -0.60354683
H       4.24547498     -0.28214986      0.45836931
H       2.89707023     -2.40388396      0.66195091
