30
CC(CCC(=O)O)=NNC(=O)c1ccncc1
C      -0.39676550     -2.37156566      1.65607301
C      -1.32951356     -1.43834735      0.92720814
C      -2.82293118     -1.69687108      1.05553501
C      -3.66963495     -0.79904484      0.16091663
C      -3.87147696      0.55762471      0.78636661
O      -4.84467512      0.83693906      1.47299870
O      -2.87357878      1.43400099      0.55427945
N      -0.95233338     -0.41940114      0.21738166
N       0.36602085     -0.13136941      0.08234124
C       0.71350183      0.95812473     -0.70292356
O      -0.10368845      1.66882352     -1.28188741
C       2.16647521      1.22516006     -0.85137087
C       2.60756040      1.82196329     -2.03297158
C       3.96008793      2.06754930     -2.17054186
N       4.87311907      1.76729227     -1.22213391
C       4.41611970      1.21680282     -0.07808104
C       3.08358767      0.92714442      0.15729117
H       0.25048247     -2.87942847      0.93610554
H       0.21261556     -1.80475898      2.36517347
H      -0.96518983     -3.12459206      2.20826655
H      -3.09773455     -1.58223839      2.11019395
H      -2.99181666     -2.74314429      0.77516463
H      -3.26718267     -0.68737318     -0.85183546
H      -4.66574432     -1.24263862      0.04038785
H      -2.10218872      1.05892329      0.05718197
H       1.06691121     -0.76492320      0.44628883
H       1.91510886      2.08698926     -2.82603437
H       4.35863668      2.52639140     -3.07133675
H       5.17686721      1.01569906      0.67162979
H       2.78735999      0.51626850      1.11429359
