29
CC(C)=CCC/C(C)=C/CO
C       3.95942835      1.92638807      0.26936978
C       2.90425086      0.86528424      0.09434968
C       3.27547241     -0.22190763     -0.87615533
C       1.73868774      0.93871672      0.76631085
C       0.59786676     -0.04314822      0.73790093
C      -0.56241313      0.47215728     -0.12152152
C      -1.75937997     -0.46401215     -0.11342706
C      -1.57060431     -1.75076482     -0.87199363
C      -2.89724685     -0.10383229      0.51467443
C      -4.16769109     -0.87897762      0.65092885
O      -5.17972590     -0.20239555     -0.07691897
H       4.16266777      2.42110953     -0.68600241
H       3.65870973      2.69811148      0.98572935
H       4.88925942      1.47850008      0.63482284
H       4.10576374     -0.81423327     -0.47825024
H       2.45135227     -0.90318694     -1.10002814
H       3.59080996      0.21660097     -1.82920263
H       1.57558534      1.78723393      1.43131719
H       0.92973071     -1.02661800      0.39117309
H       0.25632764     -0.19408596      1.77021090
H      -0.85891964      1.46867313      0.23291760
H      -0.22955358      0.61383730     -1.15822375
H      -1.13061399     -1.54933519     -1.85474808
H      -2.50653172     -2.28398010     -1.05379322
H      -0.90156122     -2.42222233     -0.32519408
H      -2.93059812      0.86327451      1.01665415
H      -4.10311136     -1.90706220      0.28943760
H      -4.46754654     -0.91771596      1.70272137
H      -4.83041526     -0.06640898     -0.97436470
