23
Cc1cccc(COC(N)=O)c1
C      -3.16658129     -0.53117523      1.59455659
C      -2.22324855     -0.13568578      0.49738628
C      -2.62810953      0.76316761     -0.49555791
C      -1.73795483      1.16147539     -1.49280788
C      -0.43304663      0.66929292     -1.50381268
C      -0.00678552     -0.23044421     -0.51848235
C       1.41020690     -0.74405330     -0.51267375
O       2.19670486      0.14133298      0.28648979
C       3.49333515     -0.21934822      0.36844240
N       4.16739257      0.66355708      1.13710433
O       4.01244543     -1.18911385     -0.15909464
C      -0.90608932     -0.61453054      0.48802870
H      -4.20287811     -0.52415347      1.24063707
H      -2.95146195     -1.54524138      1.94755182
H      -3.07505129      0.16351708      2.43511195
H      -3.63980679      1.16229959     -0.49574017
H      -2.06025397      1.86154519     -2.25915549
H       0.25265041      0.99665267     -2.28208417
H       1.79995709     -0.77842356     -1.53778710
H       1.43689119     -1.75875700     -0.09593322
H       5.15528133      0.53090093      1.28936645
H       3.68121601      1.44932566      1.54037165
H      -0.57481316     -1.29214056      1.27304101
