24
O=C(O)[C@@H](O)[C@@H](O)[C@@H](O)[C@@H](O)C(=O)O
O      -2.29986127      0.69100220      2.50040335
C      -2.43014096     -0.00322359      1.50175542
O      -3.61983504     -0.48074797      1.06497457
C      -1.27336495     -0.41244309      0.59410503
O      -1.83313502     -1.09068048     -0.53826931
C      -0.49597229      0.85806502      0.20525631
O       0.31254425      1.30194396      1.31814004
C       0.42766330      0.72095259     -1.02938244
O       0.79759582      2.05833195     -1.43444894
C       1.73987358     -0.05837341     -0.81218267
O       2.54673422      0.49772385      0.24604319
C       1.49283010     -1.52782562     -0.50677002
O       0.56873895     -2.19479492     -0.95042620
O       2.40754515     -2.01748893      0.36543595
H      -3.45296647     -0.96385832      0.21827247
H      -0.66867753     -1.11815552      1.17427615
H      -1.18429372     -1.79050934     -0.79195919
H      -1.20245571      1.67268650     -0.00384131
H      -0.31736451      1.55012755      2.03424710
H      -0.13126211      0.29535159     -1.86938732
H       1.31181548      2.44480035     -0.69892491
H       2.35502005     -0.01009004     -1.71745705
H       1.92210757      0.86403512      0.91592809
H       3.02686111     -1.28682944      0.61119553
