21
Clc1nc(Cl)nc(Nc2ccccc2Cl)n1
Cl      2.83262672      1.22658609      3.34797446
C       2.83392718      0.91002195      1.66938231
N       3.99247454      1.03721948      1.05474340
C       3.87727012      0.77047372     -0.23035339
Cl      5.30730163      0.89591801     -1.15619340
N       2.78441525      0.41542789     -0.89593055
C       1.68573848      0.32404215     -0.15812355
N       0.53921256     -0.04723796     -0.85000452
C      -0.80354500     -0.26217486     -0.49530166
C      -1.28724633     -0.11715814      0.81103672
C      -2.63543452     -0.34243952      1.11698695
C      -3.53098290     -0.71853840      0.12039509
C      -3.07998150     -0.87061043     -1.18695338
C      -1.73318562     -0.64470700     -1.48805599
Cl     -1.22715108     -0.84907337     -3.13373636
N       1.66560991      0.56558895      1.14398564
H       0.74637217     -0.18921895     -1.83265316
H      -0.63164678      0.17423951      1.62575349
H      -2.98163905     -0.22179930      2.14126172
H      -4.57641955     -0.89231735      0.36244309
H      -3.77771624     -1.16424246     -1.96665693
