41
CC(C)(C)c1nc(-c2ccncc2)c2c(N)c(C#N)c(N)nc2n1
C       3.62294206      0.87970984      1.17128733
C       3.18112425     -0.33383432      0.33003463
C       3.73735624     -1.60460259      1.00150625
C       3.76655554     -0.21015968     -1.08569212
C       1.66014616     -0.39479783      0.21931103
N       0.97738811      0.74982151      0.20314210
C      -0.36330139      0.67783697      0.05260709
C      -0.96595733      2.01597849      0.02047199
C      -1.03649630      2.79300423      1.18305077
C      -1.61119667      4.05059945      1.11161691
N      -2.11416123      4.57925789     -0.02280636
C      -2.01052759      3.83270267     -1.14209132
C      -1.44837062      2.56753581     -1.17235967
C      -1.07362907     -0.53919520     -0.06691000
C      -2.49405981     -0.77616287     -0.16750970
N      -3.42083473      0.29151396     -0.23205209
C      -2.93950393     -2.09138140     -0.40032059
C      -4.32610858     -2.38905126     -0.59465934
N      -5.45757862     -2.59388156     -0.75752821
C      -2.00527472     -3.11424181     -0.41548849
N      -2.34573966     -4.45709460     -0.56231674
N      -0.69739472     -2.89130181     -0.23147620
C      -0.23357040     -1.65621616     -0.07543694
N       1.08039137     -1.58573608      0.05841236
H       4.71304679      0.90736137      1.28298659
H       3.32080969      1.82716484      0.70975779
H       3.18472523      0.84681340      2.17581394
H       3.51959487     -2.50428266      0.41408809
H       3.30507698     -1.74807984      1.99885799
H       4.82620679     -1.54763148      1.11441401
H       4.86109370     -0.16221646     -1.05882955
H       3.40592277      0.69415567     -1.59015580
H       3.48589670     -1.06624840     -1.71070463
H      -0.64050771      2.42843109      2.12583482
H      -1.68282203      4.68516986      1.99055079
H      -2.40468516      4.29196212     -2.04437388
H      -1.39636260      2.01975896     -2.10793384
H      -4.39992441      0.05331732     -0.07658858
H      -3.18016277      1.12355209      0.30094727
H      -2.91732292     -4.65044324     -1.37850037
H      -1.48278429     -4.99908830     -0.57095732
