58
CCOC(=O)CCN(SN(C)C(=O)Oc1cccc2c1OC(C)(C)C2)C(C)C
C       4.10799756      0.16389535     -4.15945854
C       4.71949468     -0.59798511     -2.99881038
O       3.73377516     -0.94101571     -2.01183490
C       3.46619257      0.02030687     -1.07986646
O       3.87819488      1.17309738     -1.12729392
C       2.60636765     -0.55847825      0.01764375
C       2.55837335      0.39036737      1.21814972
N       1.95922755     -0.21224172      2.42077116
S       0.39828938     -0.76925690      2.44009317
N      -0.58164323      0.62646774      2.38883280
C      -0.83507756      1.29731248      3.64824211
C      -1.25895722      1.02093649      1.23409473
O      -2.05205494      1.96277159      1.20405770
O      -0.90566495      0.26192743      0.11688286
C      -1.62982812      0.56453801     -1.03444203
C      -1.03905749      1.33243906     -2.03921704
C      -1.74125448      1.57229941     -3.23272301
C      -3.02116132      1.03778721     -3.42691788
C      -3.58042367      0.27357881     -2.41278463
C      -2.89145666      0.03751602     -1.23635672
O      -3.56456997     -0.75690964     -0.34716318
C      -4.90424507     -0.88584905     -0.89930972
C      -5.31655395     -2.35207703     -0.76799398
C      -5.84125327     -0.00266468     -0.06667374
C      -4.87523775     -0.44373840     -2.37981567
C       2.89759374     -0.54739047      3.50718803
C       3.43859815      0.71420337      4.18766830
C       4.03794845     -1.47021366      3.06882849
H       4.86816198      0.37503186     -4.91363374
H       3.67488871      1.11276501     -3.82752080
H       3.30363084     -0.41713088     -4.61949812
H       5.14367529     -1.53967129     -3.36340890
H       5.54527705     -0.03500847     -2.53814809
H       1.60542901     -0.73244240     -0.38892914
H       3.04155977     -1.51949277      0.31554223
H       1.98300385      1.28614529      0.94764538
H       3.56606275      0.76739911      1.42673212
H      -1.53494472      2.13182877      3.53204896
H       0.10525426      1.69390326      4.03926459
H      -1.26319848      0.58471502      4.36209484
H      -0.04285008      1.74277742     -1.90264202
H      -1.28095994      2.17310154     -4.01563656
H      -3.55272245      1.21077923     -4.35697094
H      -5.34015886     -2.65706521      0.28247446
H      -4.58831581     -3.00511333     -1.26061623
H      -6.30374821     -2.53416160     -1.20741469
H      -6.88006480     -0.08659970     -0.40689873
H      -5.54413758      1.05141489     -0.12372650
H      -5.79819347     -0.28097099      0.99304796
H      -5.71872757      0.19850387     -2.64096528
H      -4.84355497     -1.29655838     -3.06295876
H       2.35129825     -1.09228312      4.28873690
H       4.02360485      1.33792554      3.50997847
H       2.62338437      1.31848809      4.59031307
H       4.08954312      0.44409513      5.02593656
H       4.72542949     -0.98351743      2.37001809
H       3.64902576     -2.37903102      2.59555515
H       4.62873411     -1.78145139      3.93782409
