19
NC(=O)[C@@H]1CCC[NH2+]1
N       2.63897259     -0.68730606      0.40054332
C       1.68529094      0.15281648     -0.07336290
O       1.81242243      0.75292388     -1.14077770
C       0.41295802      0.36495041      0.75927972
C      -0.42659258     -0.89532240      0.91713989
C      -1.39563386     -0.84322851     -0.25362473
C      -1.77009092      0.62137386     -0.33202854
N      -0.50395068      1.32799808      0.01024480
H       3.48817745     -0.79814504     -0.14774749
H       2.62642781     -1.14154296      1.30613993
H       0.67130264      0.83186643      1.71452750
H       0.15833952     -1.81970141      0.91509211
H      -0.98471126     -0.85269768      1.86046617
H      -0.89483266     -1.15933260     -1.17653790
H      -2.26740582     -1.48609803     -0.10258271
H      -2.09867345      0.94516600     -1.32248999
H      -2.50583878      0.89874160      0.42911012
H      -0.65404534      2.20651392      0.52010553
H       0.00788394      1.58102404     -0.85950467
