25
C=C(C)C1CC=C(C)C(=O)C1
C      -2.81909841      0.89149854     -0.71694201
C      -2.16461382      0.05870373      0.11121082
C      -2.93526863     -0.96802702      0.90473654
C      -0.65530671      0.08257856      0.35526926
C       0.02741102     -1.14808857     -0.27232727
C       1.52362247     -1.11087824     -0.14654476
C       2.24057910     -0.00726849      0.12170420
C       3.72659004      0.00552709      0.29047227
C       1.53502135      1.30587780      0.23363201
O       2.15990168      2.32288939      0.52960121
C       0.06205750      1.35657357     -0.10977413
H      -2.31884922      1.65434337     -1.30370553
H      -3.89777516      0.83468704     -0.83882161
H      -2.73973815     -0.84623771      1.97510353
H      -2.64771438     -1.98140857      0.60923692
H      -4.01686024     -0.87718918      0.75692705
H      -0.51111613      0.02621922      1.44534529
H      -0.23283313     -1.24080657     -1.33416654
H      -0.32966044     -2.05788953      0.22517967
H       2.03511068     -2.06359039     -0.26894506
H       4.19215305      0.66259923     -0.45137380
H       3.99586389      0.36114994      1.29037007
H       4.15843671     -0.99319948      0.16619110
H      -0.01623863      1.50090454     -1.19371482
H      -0.37167446      2.23103175      0.38995736
