29
C=CCc1ccc(OCC(=O)[O-])c(OC)c1
C      -4.60503560      1.43522636      1.15630018
C      -3.83577195      0.61289335      0.43039027
C      -3.01087977      1.03973873     -0.75199376
C      -1.54426120      0.74103337     -0.56389432
C      -0.72225221      1.62038035      0.14742638
C       0.63281625      1.33092080      0.32475132
C       1.18565463      0.14601805     -0.17997850
O       2.53087264     -0.08947303     -0.07543395
C       3.05094721      0.07941863      1.25981655
C       4.35115299     -0.73436861      1.41708742
O       4.21848810     -1.99424524      1.39662880
O       5.39939561     -0.04622585      1.59767127
C       0.37110608     -0.74909884     -0.88678494
O       0.73947405     -1.93893322     -1.46350020
C       1.85083740     -2.60987846     -0.87006879
C      -0.98375016     -0.43790476     -1.07752949
H      -4.68176320      2.49447209      0.93020963
H      -5.16803063      1.05780266      2.00439736
H      -3.78526198     -0.44072913      0.70238076
H      -3.38119149      0.52116639     -1.64566721
H      -3.13598231      2.11080985     -0.95810367
H      -1.12702422      2.54089943      0.56026120
H       1.26057982      2.04980007      0.84312013
H       2.33574693     -0.27730848      2.01285230
H       3.26357277      1.14060738      1.43269431
H       1.78769454     -2.61372987      0.22293883
H       1.81174490     -3.65395522     -1.19800879
H       2.79534372     -2.19494036     -1.23363971
H      -1.60422294     -1.14039645     -1.62935469
