32
Cn1nc(S(N)(=O)=O)sc1=NS(=O)(=O)c1ccc(N)cc1
C      -1.85993240     -1.04281849     -2.37188617
N      -2.23483000     -0.29083408     -1.18809141
N      -3.59197008     -0.08350459     -1.03905527
C      -3.81352987      0.51085718      0.09874196
S      -5.46460300      0.93184052      0.60022378
N      -6.54532065      0.46467121     -0.61695707
O      -5.79467321      0.10354442      1.73975435
O      -5.54742343      2.37559102      0.64877680
S      -2.41396660      0.86183668      1.09429572
C      -1.39841945      0.11654308     -0.16253653
N      -0.15577710      0.11631403      0.13150916
S       0.95885797     -0.47512306     -0.85427974
O       0.76275316     -1.90581164     -0.98549719
O       1.05741543      0.36107653     -2.03392766
C       2.47657890     -0.23415708      0.04570839
C       2.83780570      1.05970242      0.42865710
C       4.02349298      1.25904042      1.14013964
C       4.87103364      0.18542628      1.43312983
N       5.99180468      0.37721063      2.24817672
C       4.46505305     -1.10896304      1.09022009
C       3.28164516     -1.32421468      0.37852080
H      -1.10350656     -0.51497642     -2.95532477
H      -2.72117250     -1.18405577     -3.03585423
H      -1.50115105     -2.03870574     -2.10041190
H      -7.18612511     -0.23991097     -0.24828251
H      -7.03170456      1.28933644     -0.97258892
H       2.20138860      1.90813637      0.18902498
H       4.28270045      2.26384383      1.46431719
H       6.69787433     -0.34654350      2.15708206
H       6.38831253      1.31021350      2.19344491
H       5.07138422     -1.96475090      1.37647824
H       2.99600478     -2.33735809      0.10649166
