21
O=C(O)Cc1ccccc1C(=O)O
O       2.13856310      0.66765634     -1.37723423
C       2.21948163      1.01387251     -0.20996370
O       3.20289745      1.85416845      0.17931986
C       1.34804257      0.59022753      0.94801534
C       0.19490127     -0.31216966      0.55322463
C       0.25365603     -1.66633158      0.94011299
C      -0.76356490     -2.55857124      0.60109873
C      -1.85805793     -2.11737563     -0.13246050
C      -1.93610072     -0.78175812     -0.52822574
C      -0.91931794      0.13228740     -0.19519586
C      -1.05146167      1.55446396     -0.63173431
O      -0.37832978      2.49842185     -0.26272954
O      -2.03852547      1.73545851     -1.52965895
H       3.66236647      2.07426552     -0.65788066
H       0.96420956      1.47216827      1.47094469
H       1.99742837      0.06588891      1.66045219
H       1.10296973     -2.04083951      1.50943898
H      -0.69775152     -3.59982454      0.90730175
H      -2.65116820     -2.81081287     -0.40058227
H      -2.80360386     -0.46168610     -1.10160161
H      -1.98663418      2.69049001     -1.74264179
