30
O=C(O)CCCCCn1ccccc1=O
O      -4.27330391      0.13036113      1.60730054
C      -4.56822979      0.05100761      0.42796765
O      -5.81118748      0.36655758      0.01207676
C      -3.69453143     -0.39634580     -0.71419172
C      -2.23106512     -0.58755576     -0.31369311
C      -1.50509821      0.74423667     -0.09248883
C      -0.05646818      0.57030491      0.37266974
C       0.86024287     -0.01409513     -0.70562058
N       2.24564796     -0.10046172     -0.24692775
C       3.09328596      0.97832736     -0.43939442
C       4.35952855      0.95142833     -0.00673162
C       4.86230523     -0.21238243      0.67603914
C       4.06819764     -1.26834879      0.89285623
C       2.65357784     -1.25337619      0.42778751
O       1.93832657     -2.22622438      0.65265114
H      -6.27727921      0.62097656      0.83611957
H      -4.09264492     -1.35337778     -1.07010680
H      -3.76768154      0.33579964     -1.52585055
H      -2.16450315     -1.20183826      0.59230310
H      -1.73324675     -1.14321349     -1.11617862
H      -1.52688850      1.33719009     -1.01488716
H      -2.03573341      1.32817902      0.66847906
H      -0.02795221     -0.05729660      1.27189869
H       0.32783475      1.55336874      0.67312323
H       0.52540031     -1.01920419     -0.98403596
H       0.82344229      0.59680377     -1.61598293
H       2.68927720      1.84564718     -0.95271461
H       5.02369758      1.79603657     -0.15655099
H       5.89379645     -0.21113340      1.01164027
H       4.40125261     -2.16137126      1.40449529
