10
CC[N+](=O)[O-]
C       1.03669924     -0.45967778      0.08172100
C      -0.00195311      0.63299427     -0.05978439
N      -1.35986225      0.00251551     -0.05055318
O      -1.90972575     -0.13418157      1.04934602
O      -1.82861087     -0.34098224     -1.14284335
H       0.90856361     -1.01316421      1.01831778
H       0.97368955     -1.17920927     -0.74185905
H       2.04235661     -0.02793352      0.07820175
H       0.10226264      1.17609126     -1.00386147
H       0.03658035      1.34354756      0.77131487
