31
CN(C)C(=O)CCOC(=O)c1ccccc1
C      -3.58382923     -0.51343837      1.57415989
N      -3.87055656      0.20627218      0.34209304
C      -5.20203654      0.78111974      0.23578475
C      -2.88891027      0.66059979     -0.53670717
O      -3.14380935      1.42817473     -1.46550910
C      -1.48040510      0.14665207     -0.31208050
C      -0.49781558      0.75945428     -1.30147565
O       0.79992883      0.15011719     -1.16729667
C       1.57755780      0.63155489     -0.16588691
O       1.25459585      1.49002845      0.63977188
C       2.90297603     -0.04551750     -0.15897562
C       3.82504498      0.31601608      0.83323132
C       5.08149088     -0.29112555      0.88281929
C       5.42398836     -1.26159459     -0.05763795
C       4.51329010     -1.62659547     -1.04869819
C       3.25504194     -1.02146521     -1.10172599
H      -4.43500385     -1.15171904      1.82899602
H      -2.69984526     -1.14636773      1.47927743
H      -3.41866784      0.21616239      2.37228435
H      -5.29245613      1.59042272      0.96651362
H      -5.94628156      0.00815928      0.44867691
H      -5.39353006      1.18209497     -0.76313685
H      -1.47349904     -0.94334433     -0.42542316
H      -1.16589383      0.38240338      0.70975225
H      -0.42716400      1.84858465     -1.18905066
H      -0.82303547      0.57004023     -2.33068449
H       3.56814394      1.07387786      1.57117175
H       5.79232508     -0.00532426      1.65433443
H       6.40309753     -1.73321103     -0.01921168
H       4.78336888     -2.38234697     -1.78243803
H       2.56188947     -1.31968485     -1.88434192
