30
c1ccc(Nc2ccc3ccccc3c2)cc1
C      -4.55483526     -1.69475329      0.08872018
C      -3.37655962     -1.90859078     -0.62112231
C      -2.35204260     -0.95766467     -0.58223956
C      -2.49040669      0.22305796      0.15607644
N      -1.47344573      1.18872653      0.25497726
C      -0.07813375      1.10415998      0.10521285
C       0.62563225      2.23236496     -0.33173255
C       2.00848010      2.18726759     -0.53511285
C       2.72542028      1.00474448     -0.30933553
C       4.11437114      0.93851798     -0.50725209
C       4.81158541     -0.24794216     -0.27453701
C       4.12976253     -1.38114751      0.15860551
C       2.74927030     -1.33029041      0.35887487
C       2.03223428     -0.14465341      0.12779188
C       0.64039712     -0.07738247      0.32422188
C      -3.68227151      0.41838509      0.86938350
C      -4.70846963     -0.53022537      0.83539586
H      -5.35078273     -2.43394621      0.05969728
H      -3.25187916     -2.81297402     -1.21067734
H      -1.45409245     -1.13768434     -1.16707997
H      -1.81249478      2.12312314      0.45184355
H       0.09845903      3.16151456     -0.53273824
H       2.51924893      3.08433254     -0.87699178
H       4.66410569      1.81422075     -0.84452458
H       5.88637035     -0.28589025     -0.43105028
H       4.67075991     -2.30584373      0.34133423
H       2.23335365     -2.22595511      0.69792183
H       0.11647936     -0.95821051      0.68734146
H      -3.81706069      1.31269147      1.47238177
H      -5.62345573     -0.35995277      1.39634321
