24
CCC1(CO)COCOC1
C      -2.07838932     -1.32320761      0.55789115
C      -1.13317945     -0.80949863     -0.52224099
C      -0.10138782      0.26750764     -0.06795178
C      -0.82660793      1.51176071      0.47315136
O       0.09846142      2.54285415      0.79826058
C       0.77147204      0.64763544     -1.28280914
O       1.53824506     -0.47333470     -1.72552984
C       2.37408892     -0.95420895     -0.67957607
O       1.62151422     -1.37955679      0.45088162
C       0.86886061     -0.29196213      0.98751570
H      -1.53614159     -1.80292502      1.37694564
H      -2.75386863     -2.07192680      0.13021304
H      -2.69929178     -0.52248434      0.96852748
H      -0.61436318     -1.67642634     -0.94966762
H      -1.74452435     -0.39500237     -1.33480550
H      -1.52530715      1.90751919     -0.27216996
H      -1.38738346      1.27894976      1.38373358
H      -0.41878417      3.29984066      1.12698036
H       1.46103471      1.47072181     -1.05833406
H       0.14733233      0.97405964     -2.12231709
H       3.11186702     -0.19479947     -0.39206652
H       2.92093808     -1.82106716     -1.06143835
H       0.33501601     -0.65723066      1.87018964
H       1.57039839      0.47278196      1.34461677
