33
CC1(C)C2CCC1(C)C(N)(C(=O)O)C2
C      -1.54785770     -1.51926121      0.96501374
C      -1.26728892     -0.20993975      0.20129441
C      -2.48792928      0.69399134      0.49386376
C      -0.97871072     -0.40931002     -1.30827869
C      -0.65163822      1.01490873     -1.80681270
C       0.06654224      1.64299422     -0.60234707
C       0.13647251      0.46343391      0.41938036
C       0.42253667      0.96289167      1.82825216
C       1.16088560     -0.60160988     -0.14632447
N       1.49326522     -1.67147882      0.82952716
C       2.49745592      0.02632712     -0.62698569
O       2.80384853      0.35824210     -1.76013424
O       3.38431236      0.19558551      0.38380011
C       0.35216268     -1.20689191     -1.33029773
H      -0.88280564     -2.34825737      0.72452092
H      -2.55621965     -1.88546815      0.73562862
H      -1.49703408     -1.35594489      2.04701357
H      -3.40920537      0.21603248      0.13990614
H      -2.59358566      0.86014454      1.57206706
H      -2.45727091      1.67899557      0.02508025
H      -1.77469283     -0.89228839     -1.88024731
H      -1.56107614      1.57362380     -2.05165679
H      -0.01947900      1.00996243     -2.70089444
H       1.04219310      2.05401466     -0.87448186
H      -0.50730008      2.49001953     -0.20949972
H       1.41149705      1.42861718      1.88726964
H       0.38665639      0.15321440      2.56332942
H      -0.30979344      1.71567489      2.13876619
H       2.12043688     -1.25963963      1.52693825
H       2.05384117     -2.38314916      0.36039760
H       4.16126460      0.59960789     -0.05724642
H       0.14896064     -2.27515773     -1.18977490
H       0.85955606     -1.11988510     -2.29706729
