22
COC(=O)/C=C/c1ccccc1
C       4.78105113     -0.09366422     -0.05518802
O       3.43832856      0.37843320      0.05855892
C       2.50331981     -0.57541470     -0.17854226
O       2.71140595     -1.74261603     -0.46451266
C       1.17176870      0.04535380     -0.02863651
C       0.06571557     -0.69358377     -0.20314278
C      -1.30083847     -0.16624012     -0.09128476
C      -1.65806236      0.80261478      0.85605237
C      -2.97682706      1.25667237      0.94603925
C      -3.95338938      0.73980067      0.09753947
C      -3.61419168     -0.23546350     -0.83730797
C      -2.29607883     -0.69007015     -0.92703732
H       5.45330089      0.74362399      0.15174225
H       4.97711031     -0.45223281     -1.07061818
H       4.97405929     -0.88221014      0.67900910
H       1.14434818      1.10137664      0.20779877
H       0.14813050     -1.74711023     -0.46707848
H      -0.92067195      1.20742587      1.54448766
H      -3.24184249      2.00968451      1.68378557
H      -4.97906864      1.09223155      0.16893586
H      -4.37506064     -0.64523360     -1.49654965
H      -2.05250741     -1.45337808     -1.66313606
