54
O=C1c2ccccc2-c2ccc3c4c([N+](=O)[O-])cc5c6c(ccc(c7ccc1c2c73)c64)C(=O)c1ccccc1-5
O      -5.94671449     -0.28886200      2.19498546
C      -5.14602729     -0.80673228      1.42311861
C      -5.54842728     -1.94757351      0.57973703
C      -6.87030629     -2.41465884      0.66494937
C      -7.28424390     -3.48101577     -0.12390302
C      -6.37987740     -4.07383938     -0.99536340
C      -5.06213091     -3.60333569     -1.07476503
C      -4.60629771     -2.52873093     -0.28412296
C      -3.21783607     -1.99870469     -0.33477865
C      -2.23454755     -2.58066515     -1.12822792
C      -0.94416262     -2.05170036     -1.19743456
C      -0.53272091     -0.89111105     -0.50593174
C       0.78995690     -0.28614445     -0.64163350
C       1.77514569     -0.58314863     -1.63153850
N       1.45256566     -1.33709710     -2.82917411
O       2.02285661     -2.42709179     -2.97491526
O       0.66582045     -0.81799632     -3.63051782
C       3.08438908     -0.08003128     -1.63242125
C       3.50867664      0.80769618     -0.65095425
C       2.54064182      1.24008010      0.28577077
C       2.89235991      2.21343989      1.23388780
C       1.97120790      2.68275692      2.15789638
C       0.67531818      2.18984709      2.14673868
C       0.23668611      1.20903330      1.22765733
C      -1.11159262      0.72492067      1.23422083
C      -2.10953185      1.26950140      2.07825239
C      -3.40667980      0.77763708      2.12123738
C      -3.75936623     -0.29859545      1.32015656
C      -2.83134373     -0.88903528      0.45035364
C      -1.48977847     -0.34978778      0.38813530
C       1.18657760      0.71318392      0.28717170
C       4.25573651      2.79010456      1.28049266
O       4.54138372      3.65853363      2.09809398
C       5.26753541      2.29695392      0.32959669
C       6.57039977      2.81632963      0.40276441
C       7.55241537      2.35766869     -0.46632860
C       7.23204774      1.38044302     -1.39938695
C       5.92946705      0.86763022     -1.46782927
C       4.90524730      1.31914381     -0.60992705
H      -7.57612185     -1.94294898      1.34603532
H      -8.30690817     -3.84345804     -0.06087339
H      -6.69593249     -4.90569873     -1.62105226
H      -4.40954313     -4.10621423     -1.78250484
H      -2.42767029     -3.47020282     -1.72133162
H      -0.26195208     -2.63322220     -1.80856176
H       3.74739234     -0.38483240     -2.43896657
H       2.25195327      3.43687922      2.89144353
H       0.01751969      2.59949425      2.90826982
H      -1.91106953      2.11363954      2.73247740
H      -4.13367091      1.23493510      2.79009948
H       6.81809598      3.57631598      1.14167845
H       8.56194439      2.75676243     -0.41092210
H       7.99664374      1.00930729     -2.07871909
H       5.75446877      0.09696501     -2.21313547
