62
CC1(C)OC2CC3C4CCC5=CC(=O)C=CC5(C)C4(F)C(O)CC3(C)C2(C(=O)CO)O1
C       4.85060807      1.80765524      0.41224315
C       3.38144011      1.57957872      0.75405889
C       2.70524348      2.90349727      1.09038962
O       3.30160000      0.70635704      1.88400686
C       2.50760878     -0.40756879      1.49143238
C       1.03914292     -0.25785956      1.95341739
C       0.25802374     -0.00993536      0.66147706
C      -1.25434762     -0.27412218      0.63068765
C      -1.96146196      0.49766744      1.75932457
C      -3.47736309      0.34326003      1.70051174
C      -3.99829974      0.73377212      0.34106536
C      -4.90996283      1.71526116      0.21946025
C      -5.40150631      2.16655321     -1.09789187
O      -6.25280530      3.04161760     -1.19471409
C      -4.82667681      1.51945976     -2.29156626
C      -3.91933196      0.54047308     -2.17673835
C      -3.38382472     -0.01553455     -0.85703250
C      -3.86652452     -1.48285491     -0.78794661
C      -1.81028832      0.14716924     -0.77336447
F      -1.55756927      1.50801729     -0.87879379
C      -0.99954040     -0.49541141     -1.94537107
O      -1.32257439     -1.86869055     -2.14217736
C       0.53206705     -0.35352542     -1.78264923
C       1.04054506     -0.81518889     -0.40141855
C       0.88992881     -2.35189998     -0.24204985
C       2.49663740     -0.39372944     -0.03998288
C       3.55936794     -1.24096675     -0.76167848
O       3.71158467     -1.18622762     -1.98888490
C       4.45316871     -2.16337733      0.05796626
O       5.28930937     -2.95661173     -0.77417364
O       2.72346812      0.98613505     -0.36756886
H       5.38954583      2.25362597      1.25485546
H       5.35044329      0.86225959      0.17811838
H       4.95688232      2.45388771     -0.46520702
H       1.65795059      2.74992021      1.37069715
H       3.19217138      3.39262183      1.94092583
H       2.71247909      3.58283414      0.23146606
H       2.92757595     -1.30315349      1.95497280
H       0.69967361     -1.18723667      2.42485892
H       0.90949720      0.55649938      2.67326608
H       0.37532479      1.06199378      0.44341512
H      -1.44185071     -1.33909204      0.79859919
H      -1.61137445      0.13943312      2.73455717
H      -1.70141778      1.56302749      1.70382146
H      -3.92665249      0.95638495      2.49131054
H      -3.75884045     -0.69296930      1.92081841
H      -5.32482386      2.24200323      1.07118883
H      -5.18637987      1.87199846     -3.25042104
H      -3.55214550      0.08448763     -3.09358335
H      -3.68901901     -2.02497969     -1.72282985
H      -4.94901894     -1.53396439     -0.60991811
H      -3.38481089     -2.04845993      0.01514369
H      -1.26136325      0.02468763     -2.87404635
H      -0.84356515     -2.17145371     -2.93553583
H       0.78845374      0.70142815     -1.94124329
H       1.04109853     -0.92262375     -2.56985265
H       1.34440336     -2.72296267      0.68216512
H      -0.14909619     -2.68481079     -0.21993501
H       1.37529183     -2.87605029     -1.07329722
H       5.09003552     -1.56553186      0.71410621
H       3.83858702     -2.84921234      0.64500361
H       5.33327750     -2.49756211     -1.63869445
