24
COC(C)CCOC(C)=O
C      -3.45250060      0.56365978      0.20216591
O      -2.16268662      0.65052789     -0.38952238
C      -1.38475253     -0.54205920     -0.24594805
C      -1.84976627     -1.60890667     -1.23486196
C       0.07946998     -0.18225732     -0.51635426
C       0.59907516      0.86548517      0.46539204
O       1.99506901      1.11716662      0.22660329
C       2.86162054      0.27186842      0.84817352
C       4.27227495      0.65995391      0.52637683
O       2.55077687     -0.67248705      1.56024758
H      -3.93218062      1.54260008      0.11651224
H      -4.07534286     -0.16756407     -0.31913787
H      -3.37453655      0.30869275      1.26332479
H      -1.47340482     -0.92277166      0.77942031
H      -1.19892573     -2.48844551     -1.20420730
H      -1.86316743     -1.21514832     -2.25705456
H      -2.86823569     -1.93955087     -1.00954927
H       0.19418201      0.21505487     -1.53331277
H       0.70346202     -1.08251894     -0.46723132
H       0.08004103      1.81874624      0.31945013
H       0.43188274      0.56671404      1.50726460
H       4.46334048      1.68047689      0.86764409
H       4.44363468      0.57486198     -0.54958477
H       4.96067024     -0.01409902      1.04418921
