12
O=CNCC(=O)O
O       0.67814677     -1.85738935     -0.21991581
C       0.79850474     -1.24299585      0.83203717
N       0.46714957      0.07396316      0.95989373
C       0.20018348      0.92956798     -0.19117946
C      -1.12868639      0.70252079     -0.91267465
O      -1.80825528      1.61950806     -1.35711482
O      -1.45047306     -0.59176402     -1.13054809
H       1.12138809     -1.70499523      1.77940413
H       0.62828784      0.52201876      1.85409650
H       1.00879238      0.80438863     -0.91886536
H       0.21234620      1.95968746      0.17934545
H      -0.72738436     -1.21451039     -0.87447879
