23
CC(O)COc1ccccc1
C      -3.65261487     -0.49234726      0.84975976
C      -2.61976269      0.18344860     -0.03614254
O      -2.77856899      1.59939224      0.09336843
C      -1.19105899     -0.21194437      0.35498491
O      -0.30373178      0.40655463     -0.58549595
C       1.03329717      0.16552928     -0.42800331
C       1.84991821      0.75193525     -1.39884037
C       3.23545998      0.58733736     -1.35763366
C       3.81415103     -0.16697030     -0.34027454
C       3.00651769     -0.75364000      0.63248451
C       1.61827664     -0.58837530      0.59032843
H      -3.59248652     -1.58199759      0.77123407
H      -3.51648472     -0.20736705      1.89886579
H      -4.66295507     -0.17712875      0.56753046
H      -2.80566544     -0.06506659     -1.08701919
H      -2.02209697      1.99765187     -0.37816981
H      -1.08342864     -1.30206950      0.31285715
H      -0.96941169      0.16225820      1.36183472
H       1.40313965      1.34164160     -2.19538569
H       3.85971321      1.04795992     -2.11855470
H       4.89264036     -0.29685799     -0.30440527
H       3.45794374     -1.34108350      1.42815094
H       1.02720871     -1.05886074      1.36852586
