37
C=C(C)CN(CC)c1c([N+](=O)[O-])cc(C(F)(F)F)cc1[N+](=O)[O-]
C      -2.18904495     -2.01092146     -0.50247062
C      -2.38348038     -0.75221988     -0.07138674
C      -3.15825208     -0.46092906      1.18427475
C      -1.88982879      0.45054544     -0.83796412
N      -0.69956378      1.01483977     -0.16776048
C      -0.44547871      2.44500114     -0.44122539
C      -1.33223570      3.32002307      0.43524737
C       0.46635480      0.22509791     -0.14727229
C       1.18075106     -0.23448710     -1.27194044
N       0.81234183      0.16307617     -2.61451736
O       0.32037720     -0.71176822     -3.33968636
O       1.06323345      1.32721936     -2.95018542
C       2.30985337     -1.07926750     -1.18377039
C       2.78539380     -1.50229013      0.06300611
C       4.00309808     -2.39074700      0.16815688
F       5.15585299     -1.67132350      0.19543466
F       4.11697694     -3.25175907     -0.87839426
F       4.00514692     -3.15741003      1.29094021
C       2.12977980     -1.04026684      1.20796243
C       1.00570661     -0.19731279      1.08759082
N       0.40978200      0.24673770      2.33356916
O       0.61780752      1.42041266      2.67099496
O      -0.17492251     -0.61015283      3.01117463
H      -2.56705339     -2.86434196      0.05332951
H      -1.65330305     -2.22326483     -1.42323454
H      -3.41864095     -1.37537678      1.72754016
H      -2.58163534      0.17464102      1.86189006
H      -4.08977160      0.05950608      0.93860523
H      -2.69851364      1.19079907     -0.86908350
H      -1.68919200      0.20283836     -1.88416860
H       0.59983955      2.70739593     -0.23292573
H      -0.63858822      2.67511615     -1.49513132
H      -1.17921382      3.10397380      1.49671130
H      -1.10344286      4.37694792      0.26594057
H      -2.39331613      3.16823639      0.21562469
H       2.81726182     -1.40535418     -2.09389020
H       2.48592015     -1.33321479      2.19701426
