23
COc1cc(C(=O)CO)ccc1O
C      -2.14732525     -1.54847363      2.28439837
O      -2.48018217     -0.39977360      1.51138639
C      -1.51146510      0.07261957      0.66439355
C      -0.23601454     -0.46310993      0.48882025
C       0.66307829      0.12616666     -0.41972725
C       2.01504995     -0.48891344     -0.56751387
O       2.32021665     -1.48335455      0.09354814
C       3.01049782      0.12618693     -1.54310869
O       4.23791910     -0.59339864     -1.54650272
C       0.27593890      1.25681877     -1.15212025
C      -0.99958248      1.79479214     -0.97833712
C      -1.87465852      1.20108616     -0.07768985
O      -3.11767232      1.75239424      0.06971320
H      -1.93795954     -2.40940473      1.64102041
H      -3.01557581     -1.79752270      2.90203550
H      -1.30828082     -1.34149402      2.95681179
H       0.08645588     -1.33867555      1.04512914
H       2.60263229      0.09378980     -2.55670652
H       3.22885872      1.15580117     -1.24815346
H       4.12734687     -1.32288540     -0.90152022
H       0.93994185      1.74047499     -1.86243682
H      -1.31268125      2.67103553     -1.53968033
H      -3.56653851      1.19584022      0.73624034
