23
Clc1ccc(Oc2cc(Cl)c(Cl)c(Cl)c2)cc1
Cl     -4.03675209     -0.57640322      3.45987167
C      -2.98670674     -0.13697657      2.17000720
C      -1.68789297      0.28860235      2.44957611
C      -0.83437821      0.64647135      1.40364179
C      -1.28387245      0.55930224      0.08284382
O      -0.50165428      0.92929430     -0.98682545
C       0.75766818      0.38024004     -1.06619031
C       1.79528560      1.23707834     -1.42515069
C       3.09629491      0.74229522     -1.55901414
Cl      4.32877674      1.87822246     -1.98985721
C       3.36525552     -0.61913440     -1.34896192
Cl      4.97992481     -1.23414996     -1.51024403
C       2.30587951     -1.47584716     -1.01071435
Cl      2.53052429     -3.17147011     -0.74553834
C       1.00479180     -0.97942970     -0.87727793
C      -2.59122590      0.15602702     -0.19310677
C      -3.44324394     -0.20132735      0.85360447
H      -1.33851688      0.35065208      3.47693904
H       0.16852309      0.99861092      1.62825226
H       1.58630488      2.29100381     -1.59530353
H       0.18902932     -1.65632247     -0.63428179
H      -2.94536474      0.11624973     -1.21990311
H      -4.45865047     -0.52298893      0.63763321
