76
CC(C)(C)c1ccc(C(O)CCCN2CCC(C(O)(c3ccccc3)c3ccccc3)CC2)cc1
C       7.93928265      1.48060807     -1.80416661
C       7.02429966      1.72912449     -0.58370964
C       6.17622057      2.98048557     -0.89293606
C       7.94875193      2.02361739      0.61876679
C       6.09635882      0.54735904     -0.24934399
C       5.24991378      0.60821892      0.87383801
C       4.41650921     -0.46133488      1.22320776
C       4.39680221     -1.63057372      0.45765546
C       3.54682653     -2.80941991      0.87949871
O       4.40557011     -3.92607285      1.13874303
C       2.50074754     -3.25507649     -0.14953107
C       1.39855018     -2.23724357     -0.46891819
C       0.54784219     -1.87692315      0.75691803
N      -0.59637604     -0.99920606      0.43984444
C      -1.65982175     -1.72980152     -0.27047277
C      -2.87517960     -0.84229988     -0.55919783
C      -3.45357785     -0.26853251      0.74597981
C      -4.79686568      0.53830623      0.60140688
O      -5.07021594      1.05573057      1.92885996
C      -4.63630949      1.73962825     -0.35133696
C      -4.32611799      3.02295082      0.13577729
C      -4.18049148      4.11006914     -0.72934652
C      -4.34506290      3.93907335     -2.10056208
C      -4.64923984      2.67900403     -2.60801508
C      -4.79187215      1.59026226     -1.74276847
C      -6.05625327     -0.30809652      0.28399659
C      -7.30034119      0.34470905      0.12530110
C      -8.47865564     -0.36730810     -0.11669755
C      -8.44524267     -1.75542942     -0.19557296
C      -7.23759120     -2.42498323     -0.02500667
C      -6.05927300     -1.71097427      0.22057762
C      -2.31735888      0.51472471      1.43837573
C      -1.10909160     -0.39299897      1.68199052
C       5.22019606     -1.69536804     -0.67324582
C       6.05218503     -0.62428270     -1.02203125
H       8.58370733      0.60592481     -1.65345762
H       7.35490707      1.32104716     -2.71897762
H       8.59770284      2.34041064     -1.98731030
H       5.58435277      3.30527264     -0.02799295
H       6.81314449      3.82655845     -1.17832455
H       5.47913405      2.79330220     -1.71773344
H       8.65886148      2.82702805      0.38651975
H       8.52814502      1.13451037      0.89714774
H       7.38792702      2.33844260      1.50664740
H       5.22863793      1.49635236      1.50442107
H       3.79139488     -0.37207850      2.10896340
H       3.05298726     -2.59461638      1.83439817
H       5.28222473     -3.56731158      1.35844890
H       2.02924204     -4.18190042      0.20914536
H       2.99703706     -3.54275398     -1.08669694
H       1.83201339     -1.32929239     -0.90219148
H       0.77286588     -2.68688444     -1.24610607
H       0.20520771     -2.78794276      1.26328440
H       1.20210982     -1.35181721      1.46165794
H      -1.98381808     -2.60380410      0.30965438
H      -1.29067340     -2.09537109     -1.23424479
H      -3.62229018     -1.42839987     -1.10370051
H      -2.55993698     -0.03374794     -1.22985925
H      -3.66653597     -1.10792069      1.42416131
H      -5.66302947      0.42369938      2.36945460
H      -4.19210968      3.18410289      1.20286932
H      -3.93449335      5.08934278     -0.32877599
H      -4.23445463      4.78684644     -2.77267875
H      -4.77822611      2.54065435     -3.67851856
H      -5.03457227      0.61859665     -2.16774780
H      -7.35320228      1.43368822      0.19612236
H      -9.42191349      0.16039077     -0.23694064
H      -9.35691037     -2.31333972     -0.38310309
H      -7.20963384     -3.51127850     -0.07505517
H      -5.15466357     -2.29298677      0.36835302
H      -2.00735829      1.36996746      0.82602286
H      -2.64891928      0.91303999      2.40379183
H      -0.32231669      0.21398098      2.14699019
H      -1.38342394     -1.17331547      2.40445393
H       5.23326462     -2.59411528     -1.28817366
H       6.66849616     -0.74222821     -1.90900461
