49
C[C@]12CC[C@H]3[C@@H](CC=C4C[C@@H](O)CC[C@@]43C)[C@@H]1CCC2=O
C      -3.13828959     -1.55666667      0.40046788
C      -2.87861618     -0.42708107     -0.61267556
C      -2.03470948     -0.90978491     -1.78757165
C      -0.59784621     -1.22312414     -1.33406569
C       0.08665655     -0.07082392     -0.54458007
C      -0.83231819      0.54263022      0.55544773
C      -0.19639029      1.81905781      1.12539993
C       1.27135961      1.69044490      1.38247770
C       2.04651393      0.69179060      0.92231257
C       3.51998800      0.65080850      1.27262758
C       4.40129768      0.46405158      0.03761310
O       5.75406201      0.28710856      0.45238041
C       3.95859643     -0.75010713     -0.77337693
C       2.48516326     -0.64921655     -1.16635496
C       1.51206923     -0.44020168      0.03206947
C       1.45839765     -1.73261349      0.88150385
C      -2.20687442      0.83906845     -0.04912022
C      -3.28611946      1.48542493      0.81250618
C      -4.53558401      1.37825851     -0.07436214
C      -4.23124541      0.17404842     -0.95001968
O      -4.99645253     -0.26408128     -1.79859318
H      -3.81088852     -1.24693111      1.20770177
H      -2.22189509     -1.93032115      0.86476011
H      -3.62351947     -2.40587490     -0.09582453
H      -2.00888804     -0.14847208     -2.57807666
H      -2.48037262     -1.80194481     -2.24420236
H      -0.62622445     -2.13476307     -0.73014414
H      -0.00612358     -1.46341523     -2.22452967
H       0.24092255      0.73160079     -1.28472351
H      -0.94548126     -0.17101818      1.37958600
H      -0.69717144      2.07894735      2.06582101
H      -0.34583679      2.66429248      0.44211671
H       1.71034650      2.47623023      1.99505647
H       3.83511750      1.56396572      1.79418958
H       3.70510813     -0.15981223      1.98874227
H       4.35879081      1.36645219     -0.58461544
H       6.29445600      0.19008275     -0.35039235
H       4.57614940     -0.83341996     -1.67630749
H       4.14633338     -1.67127069     -0.20813231
H       2.38244891      0.18617682     -1.87241281
H       2.21686852     -1.55616943     -1.72124225
H       1.23045539     -2.61056050      0.26856850
H       2.41256841     -1.94718888      1.37430224
H       0.70329584     -1.66885149      1.67168447
H      -2.03686223      1.54191395     -0.88371821
H      -3.06347526      2.52932129      1.05432338
H      -3.42584992      0.94720682      1.75628191
H      -4.64242234      2.26050508     -0.71198395
H      -5.43750886      1.21432658      0.51908490
