45
CCN(CCO)C(=O)c1cc2cccnn2c1-c1cccc(C(F)(F)F)c1
C      -1.67605089     -3.63209424     -0.00750717
C      -2.67606911     -2.48642305     -0.03510561
N      -1.99871214     -1.19245714     -0.04999482
C      -1.78244584     -0.56820162     -1.36456164
C      -2.93541738      0.35534747     -1.77382156
O      -4.08526572     -0.40526552     -2.13563599
C      -1.68560589     -0.60361931      1.17651530
O      -1.99768817     -1.10466101      2.25425153
C      -0.97089317      0.66671384      1.15389425
C      -1.51131210      1.93614484      1.49773135
C      -0.50459538      2.86366283      1.36994693
C      -0.44495182      4.26223551      1.56785440
C       0.71525974      4.89754355      1.37327782
C       1.86718815      4.07020119      0.95474229
N       1.86508641      2.79159843      0.75845923
N       0.64983623      2.20450985      0.98319957
C       0.38445159      0.84664705      0.86817181
C       1.40573808     -0.15766733      0.53674155
C       1.53846293     -1.31398469      1.31599863
C       2.48235031     -2.28946548      0.99044356
C       3.30917534     -2.11897977     -0.11874957
C       3.20401929     -0.96664924     -0.90992191
C       4.07676218     -0.77438755     -2.12326900
F       5.18249006     -1.57144747     -2.12896575
F       4.53957986      0.50054365     -2.25279901
F       3.41542944     -1.04895768     -3.28269523
C       2.24226831      0.00273381     -0.57623373
H      -1.04421054     -3.58311451      0.88535093
H      -2.19856847     -4.59348775     -0.00432895
H      -1.01879229     -3.60125640     -0.88267583
H      -3.32212389     -2.57294304     -0.91437701
H      -3.32435741     -2.55262403      0.84573800
H      -0.85999445      0.01378830     -1.34989525
H      -1.64848990     -1.36742983     -2.10261994
H      -3.21047473      1.03677226     -0.96332641
H      -2.64194156      0.94551529     -2.64758778
H      -4.80320513      0.22817246     -2.30651780
H      -2.52977001      2.13419338      1.80757078
H      -1.33273656      4.80247093      1.88067415
H       0.84908198      5.96154154      1.50725945
H       2.80712125      4.62607146      0.80062483
H       0.90844014     -1.46520521      2.19124367
H       2.57002649     -3.18175193      1.60572120
H       4.03998223     -2.88894557     -0.36150909
H       2.15092255      0.89461174     -1.19565967
