41
CCOC(=O)C(C)N(C(=O)c1ccccc1)c1ccc(Cl)c(Cl)c1
C       3.95164319     -1.89344662      0.30987659
C       3.79522175     -0.40410304      0.55266643
O       2.54670355      0.05271755      0.01581421
C       2.54662964      0.38042522     -1.30880935
O       3.55120848      0.41333529     -2.01281353
C       1.15469146      0.83127695     -1.79322337
C       0.91238576      0.41822025     -3.24674574
N       0.03590143      0.42998462     -0.89982068
C      -0.23902816     -0.94691288     -0.80621926
O       0.50903023     -1.81288161     -1.25854359
C      -1.52363557     -1.40169860     -0.20872868
C      -1.51697107     -2.54168217      0.60405042
C      -2.70613798     -2.99830864      1.17309831
C      -3.90315029     -2.32846169      0.91817051
C      -3.91754539     -1.20873414      0.08558704
C      -2.73069190     -0.74810779     -0.48656718
C      -0.43217351      1.39774204      0.04551938
C      -0.73296822      2.70161815     -0.36953602
C      -1.19390938      3.65421161      0.54495819
C      -1.35437471      3.31826848      1.89029315
Cl     -1.93083164      4.54245258      2.96275065
C      -1.04772794      2.02461387      2.31930560
Cl     -1.20574870      1.53553733      3.96936288
C      -0.58719272      1.07335080      1.40063004
H       4.87173580     -2.26686701      0.76804583
H       3.97912120     -2.11592094     -0.76153987
H       3.10064329     -2.44209920      0.72693624
H       3.77069949     -0.20787670      1.62957763
H       4.63892989      0.16196072      0.14208438
H       1.22559876      1.92517087     -1.79032441
H      -0.08518433      0.72543567     -3.57809169
H       1.64774405      0.89011573     -3.90792569
H       1.00279843     -0.66206430     -3.39419734
H      -0.58647068     -3.07240856      0.79434264
H      -2.70037929     -3.87946703      1.81004643
H      -4.82949860     -2.68744295      1.36080496
H      -4.85579285     -0.70035953     -0.12289028
H      -2.75814513      0.10999114     -1.15223020
H      -0.65504277      2.98917669     -1.41568829
H      -1.43344574      4.65687939      0.19736516
H      -0.31463982      0.08635845      1.76668840
