24
Cc1cc(C)c(C(=O)O)c(C)c1
C       3.34142753     -0.02693501     -0.50405817
C       1.85654521     -0.00357758     -0.28702058
C       1.14226338     -1.19966618     -0.15595791
C      -0.24036145     -1.19767966      0.09091142
C      -0.95079168     -2.51625582      0.22992572
C      -0.91413787      0.03920598      0.18262366
C      -2.37428666      0.08509216      0.43209357
O      -2.94196139      0.70057639      1.31354320
O      -3.05319066     -0.60537678     -0.50131475
C      -0.20484457      1.25399790      0.06986519
C      -0.88405096      2.59041811      0.20008096
C       1.18084529      1.21408782     -0.15230729
H       3.63879989     -0.91200380     -1.07629104
H       3.66711515      0.85065259     -1.07238709
H       3.86000228     -0.03737974      0.45951993
H       1.67246737     -2.14741831     -0.23917073
H      -0.24485087     -3.32410252      0.45219200
H      -1.66772283     -2.49142941      1.05684206
H      -1.46961345     -2.76709858     -0.70023665
H      -3.99238468     -0.46560823     -0.26120139
H      -1.17090121      2.76961192      1.24086258
H      -0.22179218      3.40613432     -0.10987008
H      -1.76993822      2.63992094     -0.44124008
H       1.74136260      2.14483351     -0.22740451
