46
CCCCCCCCN(C)N=Nc1ccc(C(=O)O)cc1
C       6.40169754     -0.63983023      2.07048300
C       5.73628861      0.70471480      1.81854021
C       4.25936340      0.58683371      1.43361035
C       4.04644871     -0.02126701      0.04581009
C       2.55745257     -0.09788494     -0.30360197
C       2.34931883     -0.62798996     -1.72706493
C       0.87262313     -0.70894712     -2.11972395
C       0.14982112     -1.89468503     -1.47617672
N      -1.28103526     -1.91134160     -1.77460580
C      -1.69660144     -2.21986823     -3.13703697
N      -2.02431763     -1.06501619     -0.98896646
N      -3.18127658     -0.87005522     -1.40967144
C      -3.90870610      0.01175593     -0.58739729
C      -3.33149078      1.08649931      0.11181186
C      -4.11583839      1.94382639      0.89434172
C      -5.49715331      1.73956544      0.98119404
C      -6.37222257      2.62478346      1.78751359
O      -7.58549754      2.54965876      1.86085636
O      -5.68391322      3.55284503      2.47558023
C      -6.08619143      0.68155696      0.28109034
C      -5.29539074     -0.16791673     -0.49844539
H       7.42238412     -0.48989332      2.43747850
H       5.85306549     -1.21875445      2.82090277
H       6.46401175     -1.23182236      1.15326805
H       5.81138522      1.30636560      2.73188965
H       6.28786437      1.24149835      1.03451682
H       3.72770470     -0.00739315      2.18873856
H       3.81707216      1.59271523      1.44785848
H       4.47725619     -1.02845013     -0.00149542
H       4.56974525      0.58558947     -0.70206246
H       2.10610842      0.89875018     -0.21673686
H       2.05323255     -0.74723585      0.42116745
H       2.82079374     -1.61230827     -1.83835709
H       2.85301805      0.04873830     -2.42815147
H       0.36646799      0.22980125     -1.86674036
H       0.80975143     -0.80727401     -3.21103529
H       0.25701719     -1.87641675     -0.38473400
H       0.57639646     -2.84192356     -1.82432340
H      -1.07487564     -3.02916523     -3.53141890
H      -2.73923420     -2.55477987     -3.15089059
H      -1.57996815     -1.32722583     -3.75802339
H      -2.26015791      1.26331831      0.04678712
H      -3.63593633      2.76199060      1.42591092
H      -6.37285658      4.06079209      2.95073127
H      -7.16040324      0.51465430      0.33549430
H      -5.76322195     -0.98880844     -1.04084614
