45
COc1cc(-c2c(F)ccc3c(N)c(C(=O)NC4CC4)nnc23)c(OC)nn1
C      -3.64246329      0.22388135     -5.54872001
O      -3.00335718     -0.68312070     -4.65544520
C      -3.00481369     -0.24127739     -3.34765963
C      -2.40148996     -1.06076075     -2.41328983
C      -2.37521451     -0.65531088     -1.07527580
C      -1.74016392     -1.49571288     -0.04631312
C      -2.40278010     -2.64209793      0.40995337
F      -3.59908228     -2.97472656     -0.09834975
C      -1.85212062     -3.46111437      1.37983064
C      -0.61552621     -3.13051474      1.92221733
C       0.08736571     -1.97604367      1.50329266
C       1.34601547     -1.60565643      2.04833324
N       1.99131816     -2.44032874      2.99881741
C       1.98582695     -0.49817707      1.47886231
C       3.32326018     -0.01041666      1.94503225
O       3.88390376     -0.51030888      2.91772116
N       3.84869696      1.03819379      1.20877530
C       5.09466846      1.65618733      1.51853628
C       5.13343189      2.94960307      2.28342133
C       5.51155086      2.92754201      0.83165775
N       1.42229573      0.24637868      0.50248279
N       0.18503124     -0.09077785      0.02941374
C      -0.48367473     -1.16435787      0.49109335
C      -2.97343395      0.56859213     -0.77351731
O      -2.98494392      0.97230728      0.55002847
C      -3.52971523      2.27485217      0.73383790
N      -3.56046046      1.34521249     -1.71516514
N      -3.57366115      0.93669301     -3.01671325
H      -3.59182690     -0.20683906     -6.55342287
H      -3.12345269      1.18837912     -5.57307236
H      -4.70024811      0.35206041     -5.29402090
H      -1.95732973     -1.99922506     -2.72730834
H      -2.38621743     -4.34861937      1.70552024
H      -0.19538203     -3.79789058      2.67151306
H       2.82434912     -1.98908199      3.40402395
H       1.38168670     -2.79490200      3.72803449
H       3.29122701      1.39231104      0.43534841
H       5.88526689      0.93866102      1.73074620
H       4.19324833      3.41149459      2.56042849
H       5.92150807      3.07399605      3.01695338
H       4.83153457      3.38856680      0.12553717
H       6.55913129      3.04329758      0.57828323
H      -3.46051981      2.51718020      1.79872637
H      -2.95503158      3.02772406      0.18319119
H      -4.58840783      2.30414724      0.45410833
