43
CCCCCCC(C(C)O)n1cnc2c(N)ncnc21
C       4.55699955      2.61120010      0.36268921
C       3.32020411      1.75161614      0.15019357
C       3.64830380      0.26290322      0.27369577
C       2.45850614     -0.64773069     -0.04612453
C       1.31604069     -0.52450470      0.96524506
C       0.20417043     -1.56450271      0.75890550
C      -0.56435911     -1.45286304     -0.57774921
C      -1.57668739     -2.61171571     -0.79932251
C      -0.88274612     -3.88275274     -1.28121029
O      -2.28271242     -2.95263296      0.39388809
N      -1.21435465     -0.14986252     -0.72603003
C      -0.83356589      0.82997701     -1.60872720
N      -1.58915904      1.90303772     -1.51296051
C      -2.51110578      1.59836812     -0.53270368
C      -3.57817139      2.32324689      0.02356053
N      -3.91799809      3.60782208     -0.38026964
N      -4.30002622      1.75221103      1.01417763
C      -3.97993929      0.49860795      1.40006749
N      -2.99526158     -0.29921541      0.93230492
C      -2.29262904      0.32608376     -0.02879057
H       4.98288483      2.44617681      1.35754350
H       5.32580801      2.38429026     -0.38281116
H       4.30108609      3.67167839      0.27407164
H       2.90334335      1.96081183     -0.84174713
H       2.56426713      2.03812398      0.88895618
H       4.46235641      0.01705854     -0.41962989
H       4.01819742      0.04628297      1.28325106
H       2.81438806     -1.68524865     -0.05871424
H       2.10160050     -0.42275221     -1.05675283
H       1.72181179     -0.66216880      1.97547955
H       0.88821260      0.48295017      0.93971204
H       0.64925142     -2.56324527      0.84116393
H      -0.49406965     -1.47000726      1.59983354
H       0.15527071     -1.50091721     -1.40496620
H      -2.32078545     -2.32860214     -1.55401851
H      -1.62030994     -4.67476038     -1.45253673
H      -0.33830797     -3.71101620     -2.21464667
H      -0.18464298     -4.26766251     -0.53078535
H      -2.72312224     -2.13613530      0.71339002
H       0.00037270      0.71308157     -2.28984473
H      -3.16507055      4.09472478     -0.85340791
H      -4.43152263      4.10944331      0.33185782
H      -4.59652834      0.07859979      2.19043454
