19
O=C(O)COc1cccc(Cl)c1
O      -3.73293181      0.68168624     -0.77800861
C      -3.28682578     -0.07042340      0.07199816
O      -4.13314978     -0.77099369      0.86088046
C      -1.83443079     -0.36008550      0.40228232
O      -0.97679189      0.39324987     -0.44613399
C       0.37014110      0.23903999     -0.26898749
C       0.98547127     -0.59181270      0.67028922
C       2.38075486     -0.65553390      0.74540195
C       3.16492647      0.10986515     -0.11679629
C       2.55012965      0.93766852     -1.05262940
Cl      3.51459953      1.88378777     -2.11841498
C       1.16039132      1.00418284     -1.13088331
H      -5.02075800     -0.49442745      0.54666436
H      -1.66980964     -1.43222812      0.24602368
H      -1.67254974     -0.07532629      1.44808973
H       0.41251812     -1.20363020      1.35960545
H       2.85619254     -1.30354644      1.47796736
H       4.24851977      0.05701684     -0.05466770
H       0.68360281      1.65151048     -1.86268091
