10
c1ccnnc1
C       0.68179295      0.80642998     -0.01533696
C      -0.70496691      0.78614264     -0.02018790
C      -1.33584815     -0.44265902      0.00474219
N      -0.65731439     -1.60793204      0.03326530
N       0.70381952     -1.58801957      0.03802616
C       1.34815926     -0.40339385      0.01413032
H       1.23009395      1.74102285     -0.03403561
H      -1.28022758      1.70429878     -0.04281757
H      -2.41581645     -0.53339273      0.00263155
H       2.43030780     -0.46249705      0.01958252
