13
Clc1cc(Cl)c2nsnc2c1Cl
Cl     -2.72833837     -1.96767279      0.03978148
C      -1.33941290     -0.93154382      0.02168493
C      -1.58194844      0.45662895      0.12339260
C      -0.54115214      1.39350444      0.11992394
Cl     -0.81110453      3.07127305      0.24147091
C       0.79538223      0.92947434      0.01075596
N       1.92592859      1.65570370     -0.01130950
S       3.18523752      0.58922287     -0.15369647
N       2.36456170     -0.84890931     -0.19491370
C       1.05383022     -0.56183415     -0.09839399
C      -0.04291395     -1.46787547     -0.08963031
Cl      0.32808478     -3.13227496     -0.21636441
H      -2.60815470      0.81430315      0.20729857
