52
CC12C=CC(=O)C=C1CCC1C2C(=O)CC2(C)C1CCC2(O)C(=O)CO
C      -2.86279834     -1.04898657     -1.90109557
C      -2.69065189     -0.48468225     -0.47189759
C      -3.36398713     -1.46975639      0.47910521
C      -4.43972828     -1.20758827      1.23301712
C      -5.07753401      0.12096291      1.20860679
O      -6.06492831      0.36831401      1.88861149
C      -4.46268110      1.14901580      0.34474607
C      -3.38123554      0.88944174     -0.41187570
C      -2.74215099      1.98901901     -1.22291598
C      -1.28932191      2.17340754     -0.79752549
C      -0.49544732      0.85665198     -0.86765568
C      -1.19460160     -0.26743783     -0.05763415
C      -0.30403469     -1.50967352     -0.12560145
O      -0.69170692     -2.61882395     -0.48241596
C       1.11964652     -1.32301264      0.35781204
C       1.84159002     -0.21506327     -0.43395814
C       2.13159955     -0.71550067     -1.86286329
C       0.98194841      1.07728527     -0.46466320
C       1.21327158      1.71106486      0.91816964
C       2.58298771      1.21376427      1.40474864
C       3.11971629      0.30060781      0.29553903
O       3.86492759      1.15470312     -0.59392209
C       4.09931112     -0.80355074      0.73201300
O       4.91454013     -1.26311597     -0.07996454
C       4.08407559     -1.30640476      2.16801239
O       4.85414469     -2.49055710      2.31297549
H      -2.53730630     -2.09113872     -1.98189118
H      -3.91716332     -1.02949225     -2.20679418
H      -2.30305444     -0.48073928     -2.64988967
H      -2.95499828     -2.47865569      0.52202154
H      -4.89332196     -1.95022663      1.87818247
H      -4.93430792      2.12457042      0.38317407
H      -2.79839457      1.74899984     -2.29055031
H      -3.27280299      2.94039348     -1.09492879
H      -0.81897877      2.92554634     -1.44241631
H      -1.26893969      2.57510190      0.22332419
H      -0.47687173      0.54812894     -1.92162525
H      -1.19826017      0.02054166      1.00458754
H       1.65158188     -2.27700908      0.26184507
H       1.05519123     -1.09920518      1.42792385
H       2.82962252     -1.55913704     -1.84958024
H       1.22118992     -1.05560178     -2.36747080
H       2.56719503      0.06888515     -2.49070905
H       1.41241524      1.76804622     -1.20562976
H       1.19682441      2.80466785      0.85261233
H       0.44452702      1.42172013      1.64199829
H       3.24948456      2.06357390      1.59222813
H       2.44366747      0.69627597      2.35835984
H       4.43120134      0.56882021     -1.13855148
H       4.50878749     -0.53733037      2.81841602
H       3.06549394     -1.53933657      2.48042919
H       5.55026697     -2.45748382      1.62556640
