29
COc1ccc(Cn2cc(F)c(=O)[nH]c2=O)cc1
C      -4.70527957      0.96784246     -1.00751220
O      -3.97028668     -0.23860120     -1.17067084
C      -2.79098636     -0.34030762     -0.48587061
C      -2.24363638      0.62665465      0.35606106
C      -1.02220658      0.39123293      0.99733658
C      -0.33177209     -0.81406679      0.80743071
C       0.99551052     -1.05183677      1.49044637
N       2.09095796     -0.32874389      0.84238744
C       2.65157563     -0.83892834     -0.31582443
C       3.63045571     -0.20349266     -0.95838179
F       4.18654552     -0.68534683     -2.08462945
C       4.13889861      1.07774016     -0.43470893
O       5.03802907      1.70769817     -0.97921758
N       3.52877688      1.51316985      0.71284400
C       2.51178759      0.88136827      1.38673454
O       2.03723291      1.38939587      2.39963560
C      -0.88631999     -1.78043186     -0.04031333
C      -2.10601025     -1.54186808     -0.67871330
H      -5.01275802      1.10502805      0.03446989
H      -4.13475177      1.82975353     -1.36904056
H      -5.61245761      0.89114055     -1.61463035
H      -2.73797890      1.57519178      0.53722083
H      -0.61153740      1.15986308      1.65104395
H       0.91386311     -0.75559949      2.54343196
H       1.24052660     -2.12184918      1.49859462
H       2.26405761     -1.77932014     -0.69317644
H       3.84558098      2.39095883      1.09424976
H      -0.37933385     -2.72674681     -0.21248011
H      -2.52848327     -2.29989849     -1.33420001
