23
Oc1ccc2c(c1)CCCC2
O       3.66418883      0.73759193     -1.37412785
C       2.54193828      0.42732657     -0.66390069
C       2.61297246      0.03627967      0.66717100
C       1.43770704     -0.27646445      1.35178813
C       0.19169765     -0.20491375      0.70839026
C       0.12954245      0.21256895     -0.63429613
C       1.31759746      0.51468765     -1.31623285
C      -1.18056255      0.28442590     -1.37935603
C      -2.39776591      0.30719437     -0.45675296
C      -2.27792327     -0.77389610      0.60965625
C      -1.05847459     -0.51918020      1.49365456
H       4.43451858      0.63036441     -0.79299276
H       3.56351748     -0.03077103      1.18585108
H       1.49550535     -0.57847597      2.39532221
H       1.29203403      0.81959493     -2.35935793
H      -1.20167801      1.18007646     -2.01167569
H      -1.24342091     -0.58933621     -2.04010631
H      -3.30907052      0.15770935     -1.04651778
H      -2.48354230      1.28972430      0.02455371
H      -3.18206549     -0.79715340      1.22822866
H      -2.19194774     -1.75642545      0.12838835
H      -0.89097674     -1.40051165      2.12425020
H      -1.26379157      0.32958371      2.15806258
