45
CCCCCC(=O)N(C)c1ccc(S(=O)(=O)N(C)C)cc1
C       7.30827656      0.20288154      0.74974819
C       5.79363407      0.16604927      0.88580073
C       5.21398808     -1.12705907      0.31131356
C       3.70426457     -1.26554317      0.52638508
C       2.88310687     -0.21654006     -0.22916470
C       1.37794569     -0.45089176     -0.10618053
O       0.96456039     -1.39056112      0.57593480
N       0.54663687      0.47076552     -0.77527018
C       1.08254242      1.70351043     -1.35811620
C      -0.88886482      0.31487174     -0.77710704
C      -1.73961829      1.42941209     -0.89803374
C      -3.13278836      1.28745073     -0.90800071
C      -3.69784264      0.01826079     -0.79402587
S      -5.46810012     -0.17278265     -0.83144140
O      -6.01608955      1.01809837     -1.44736223
O      -5.75062679     -1.48656103     -1.36992896
N      -5.89390734     -0.16284085      0.81643938
C      -5.49056998     -1.33240397      1.61664234
C      -5.73748157      1.11236876      1.53613362
C      -2.88066729     -1.10692830     -0.71411474
C      -1.48936079     -0.95252251     -0.69832648
H       7.70314098      1.13647214      1.16260617
H       7.77143999     -0.62937293      1.28934594
H       7.60908984      0.14172227     -0.30102757
H       5.37506703      1.03490437      0.36687961
H       5.52575349      0.25686798      1.94472449
H       5.70670344     -1.98340938      0.78850092
H       5.44010040     -1.19064671     -0.76008638
H       3.47748317     -1.21335069      1.59857416
H       3.40307897     -2.26746207      0.19480711
H       3.10770838      0.77708551      0.17142122
H       3.15279729     -0.25794552     -1.29021065
H       2.11203362      1.58527854     -1.69946969
H       0.50091776      1.99807631     -2.23770144
H       1.05848453      2.49137473     -0.59886810
H      -1.34477321      2.43964791     -0.95902684
H      -3.76249314      2.16952581     -1.00356475
H      -4.43155528     -1.28120605      1.88417003
H      -5.68831883     -2.26625574      1.08367433
H      -6.07899549     -1.36447695      2.53962676
H      -6.14057581      1.94683853      0.95601712
H      -4.68736212      1.30523764      1.77262653
H      -6.30214530      1.07682010      2.47369043
H      -3.30790946     -2.10647352     -0.67072464
H      -0.88870827     -1.85828699     -0.65994282
