25
CN(C)C(=S)[S-].CN(C)C(=S)[S-].[Zn+2]
C      -0.80656250      0.70159110      0.87964457
N       0.16661087     -0.09479061      0.13795707
C      -0.40868655     -1.04999230     -0.80438759
C       1.44211064      0.36328949     -0.03714315
S       2.03533010      1.70121096      0.86272116
S       2.51087422     -0.39229055     -1.15004135
C      -1.18781662     -0.70829845      0.06286969
N       0.11910733     -0.07046849      0.19137426
C       0.11691561      1.37930989      0.01953941
C       1.26106637     -0.78870221     -0.02649366
S       1.22393006     -2.50309519     -0.13221302
S       2.78335434     -0.00797619     -0.18398682
Zn      0.00000000      0.00000000      0.00000000
H      -0.44164734      0.94071547      1.88241144
H      -1.04748080      1.60807956      0.31564967
H      -1.72818977      0.12735168      1.02131212
H      -0.55327987     -0.56757110     -1.77609517
H      -1.38289071     -1.39276584     -0.44017576
H       0.21381173     -1.94482785     -0.89185302
H      -1.97323328     -0.01875954      0.38978503
H      -1.26634230     -1.58577099      0.71075955
H      -1.36987046     -0.96779103     -0.98468590
H       0.88306441      1.85333892      0.63937568
H      -0.84091938      1.79297441      0.35218259
H       0.25074392      1.62523887     -1.03850681
