19
CN(C)C1CSSC1
C       1.51611265     -1.14933036     -0.38937167
N       0.84751425     -0.11875935      0.41521636
C       1.61540010      1.12878738      0.31303490
C      -0.57794686      0.06893334      0.00796708
C      -1.40288511     -1.23375033      0.13463407
S      -3.14677722     -0.83586047     -0.16498917
S      -3.06174902      1.11511510      0.43655867
C      -1.29961905      1.13565668      0.86519624
H       1.08136720     -2.13751106     -0.21111912
H       1.46792791     -0.92939377     -1.46182636
H       2.57132034     -1.23880934     -0.10535808
H       1.57617941      1.55443810     -0.69599190
H       1.25631615      1.87660956      1.02654623
H       2.66710546      0.95894152      0.57226737
H      -0.59340952      0.39389908     -1.04379821
H      -1.09754312     -1.98620310     -0.59787509
H      -1.30736784     -1.66926855      1.13558134
H      -1.19434833      0.92390482      1.93513829
H      -0.91759739      2.14260074      0.67516350
