35
CCCCCCCCCCC(=O)O
C       4.70085464     -0.90329112      0.20633857
C       3.96563823     -0.12056666     -0.87017179
C       3.37056784      1.19784669     -0.36990185
C       2.35171749      1.07869061      0.76779222
C       1.12377741      0.24154292      0.40056850
C       0.08801164      0.25861090      1.52796466
C      -1.10989417     -0.65957154      1.26846107
C      -1.96885725     -0.21856939      0.08069295
C      -3.21217627     -1.10386353     -0.06043603
C      -4.07671775     -0.71054496     -1.25783922
C      -4.82424160      0.57892479     -1.04385341
O      -4.99052597      1.17828358      0.00396901
O      -5.36380184      1.04172669     -2.18906345
H       4.01578831     -1.26009598      0.98100180
H       5.47251307     -0.28920157      0.68115146
H       5.18826298     -1.77945943     -0.23329095
H       4.67128340      0.10614819     -1.67870405
H       3.18460153     -0.74925026     -1.31141510
H       2.89763696      1.70863433     -1.21796863
H       4.18691560      1.85013034     -0.03515951
H       2.83270901      0.66275376      1.66056156
H       2.02630598      2.09136710      1.03781391
H       1.42139616     -0.79425465      0.20350446
H       0.68289595      0.63802333     -0.52059532
H      -0.26427060      1.28421984      1.69235158
H       0.56883098     -0.06318748      2.46019243
H      -1.73057857     -0.67387257      2.17304798
H      -0.75845628     -1.68651044      1.11074091
H      -1.38501649     -0.27441599     -0.84479753
H      -2.26540421      0.82782642      0.21505820
H      -3.80369785     -1.06419660      0.86226955
H      -2.89232868     -2.14506795     -0.19077927
H      -3.45278836     -0.61740959     -2.15358882
H      -4.82351755     -1.49286854     -1.43369848
H      -5.82743374      1.86146874     -1.91715868
