27
Nc1ccc2cc3ccc(N)cc3nc2c1
N       4.39449473      2.06767035      1.01187888
C       3.39319547      1.25254458      0.47005140
C       3.61799996      0.56403931     -0.71982708
C       2.58563674     -0.15328830     -1.32379047
C       1.30049353     -0.15151100     -0.75905240
C       0.23985358     -0.86004167     -1.33353475
C      -1.02959138     -0.81986117     -0.74710661
C      -2.11676721     -1.52793459     -1.28302276
C      -3.36793003     -1.46071298     -0.67050586
C      -3.55900120     -0.65801555      0.45179381
N      -4.78072041     -0.68278172      1.13545682
C      -2.45135840     -0.00635820      1.00597017
C      -1.19195512     -0.05096421      0.41893490
N      -0.17605411      0.63127669      0.97882043
C       1.04281391      0.58573966      0.41025509
C       2.09300131      1.29131784      0.98641674
H       5.33873443      1.75508666      0.80907537
H       4.26221947      2.28157561      1.99613995
H       4.59898396      0.57935234     -1.18710679
H       2.78732968     -0.70004982     -2.24158065
H       0.40233801     -1.44266142     -2.23691115
H      -1.99390440     -2.14493201     -2.16969427
H      -4.19147936     -2.04053862     -1.07852954
H      -4.93309121      0.12396328      1.73376071
H      -5.58233253     -0.88162076      0.54528110
H      -2.56457405      0.56404253      1.92441347
H       1.88166464      1.88466317      1.87241348
