39
Clc1ccc(C(Cn2ccnc2)OCc2cc(Cl)ccc2Cl)c(Cl)c1
Cl     -2.48729081     -4.90310109     -3.28378579
C      -2.10937503     -3.57380347     -2.26002007
C      -1.27779406     -2.55959438     -2.72351268
C      -0.97168547     -1.47935893     -1.89299656
C      -1.48510303     -1.40281307     -0.58346565
C      -1.15042274     -0.20835566      0.30118726
C      -2.19356636      0.90136392      0.09573093
N      -2.13624790      1.88971403      1.15841627
C      -2.93086655      1.92918385      2.26930993
C      -2.49961035      3.03111050      2.97076500
N      -1.47044449      3.65420504      2.31323104
C      -1.27625219      2.94779588      1.22251592
O       0.13932416      0.32308448     -0.05833469
C       1.20602667     -0.28318725      0.67966940
C       2.55474229      0.19533537      0.19123678
C       2.66431318      1.17344283     -0.81500006
C       3.91528517      1.60940633     -1.25532899
Cl      4.01736694      2.80077342     -2.49215288
C       5.08004341      1.08623235     -0.70285425
C       4.99231856      0.11957770      0.29873479
C       3.74088966     -0.32194393      0.74289796
Cl      3.71165751     -1.52090856      1.98784314
C      -2.33579388     -2.43488398     -0.14488667
Cl     -3.05797720     -2.41356092      1.42542205
C      -2.64249085     -3.51610787     -0.97627349
H      -0.86405920     -2.60136737     -3.72846545
H      -0.32047101     -0.69466680     -2.27749492
H      -1.12021702     -0.50432230      1.35689825
H      -3.21630903      0.50627061      0.08756888
H      -2.03145378      1.43724017     -0.84772394
H      -3.70688897      1.20300615      2.46755348
H      -2.87467406      3.40895346      3.91314955
H      -0.53290605      3.15191752      0.46216174
H       1.14717999     -1.37107724      0.56037604
H       1.09183816     -0.01410427      1.73614854
H       1.77018062      1.60361057     -1.26097526
H       6.05456230      1.42597329     -1.04351161
H       5.90414472     -0.28576217      0.73129571
H      -3.29797333     -4.30927821     -0.62532966
