19
C[N+](C)(C)C.[OH-]
C       1.48432703     -0.03190672      0.33481998
N      -0.00000010      0.00000006     -0.00000022
C      -0.28364428     -0.96675550     -1.14073652
C      -0.80523862     -0.41011062      1.22464255
C      -0.39544424      1.40877301     -0.41872675
O       0.48890387      0.00000000      0.00000000
H       2.04674851      0.26511236     -0.55532600
H       1.66953520      0.66766995      1.15530022
H       1.75038892     -1.05029326      0.63314477
H       0.30250438     -0.65719113     -2.01108006
H      -1.35329245     -0.93070730     -1.36756555
H       0.00614622     -1.97259501     -0.82260697
H      -1.86788638     -0.38153130      0.96606799
H      -0.50844863     -1.42342055      1.51102748
H      -0.58930111      0.29454331      2.03317931
H      -0.18500919      2.08901602      0.41186626
H      -1.46359156      1.41294063     -0.65524730
H       0.19220628      1.68645608     -1.29875919
H      -0.48890387      0.00000000      0.00000000
