22
Clc1ccc(Cl)c(-c2cc(Cl)cc(Cl)c2Cl)c1
Cl     -3.51326446      1.43829157     -2.47882680
C      -2.76932375      0.73536140     -1.09652046
C      -3.55750656      0.29345998     -0.03763170
C      -2.95181746     -0.27408802      1.08373253
C      -1.55957360     -0.39880562      1.14211742
Cl     -0.87569319     -1.10336460      2.56652870
C      -0.75036670      0.04177437      0.07590159
C       0.71897673     -0.07283767      0.09555625
C       1.47280121      1.00396426      0.59944263
C       2.86405823      0.93925155      0.64608692
Cl      3.75819829      2.26997984      1.26841894
C       3.53415547     -0.19093397      0.19291159
C       2.80598242     -1.26974394     -0.31399299
Cl      3.70852497     -2.63990528     -0.86429199
C       1.40232543     -1.21974858     -0.36757461
Cl      0.49849683     -2.55981034     -1.00781330
C      -1.37990227      0.61438314     -1.04515839
H      -4.63991918      0.38641473     -0.07832211
H      -3.57005610     -0.61879476      1.90948032
H       0.96622876      1.89654897      0.96459761
H       4.61990820     -0.23326076      0.23350899
H      -0.78223324      0.96186374     -1.88603088
