30
NC(=O)N1c2ccccc2C=Cc2ccccc21
N       0.80505685      2.84505348     -1.32556866
C      -0.33659006      2.23043451     -0.88628010
O      -1.38656336      2.85947275     -0.99780734
N      -0.18184600      0.91248263     -0.43991093
C       1.07780065      0.39297414      0.02666241
C       1.89511694      1.20980452      0.83503849
C       3.12838439      0.76272518      1.31202784
C       3.57153024     -0.51230560      0.98817956
C       2.77830581     -1.33787231      0.19227234
C       1.52690524     -0.90454774     -0.28366376
C       0.80583980     -1.81792523     -1.17308115
C      -0.52311991     -1.96231748     -1.19598178
C      -1.46411568     -1.22697342     -0.34394385
C      -2.61223772     -1.92630248      0.07418269
C      -3.61712035     -1.29082639      0.80124634
C      -3.49463566      0.05745270      1.10614414
C      -2.36561496      0.76558734      0.68806945
C      -1.32994279      0.14234819     -0.03548326
H       1.48290635      2.24486299     -1.77507515
H       0.61665887      3.71250441     -1.81101543
H       1.56102118      2.20381080      1.12684460
H       3.73470344      1.41009565      1.94041411
H       4.53072401     -0.86766867      1.35578104
H       3.14340724     -2.33380877     -0.05162573
H       1.41325217     -2.43500916     -1.83038911
H      -0.96046334     -2.69091067     -1.87444741
H      -2.73307673     -2.97976059     -0.17013978
H      -4.49558118     -1.84566035      1.11935405
H      -4.27399877      0.56575976      1.66782287
H      -2.29670667      1.81651982      0.96037350
