22
Clc1ccc(-c2ccc(Cl)c(Cl)c2Cl)c(Cl)c1
Cl      5.26669076      0.36500432      0.39482061
C       3.55130384      0.24725956      0.34518781
C       2.88433926     -0.51592822      1.29978212
C       1.49117441     -0.61453559      1.26068319
C       0.74782340      0.05021470      0.26806239
C      -0.72092496     -0.07678891      0.26209027
C      -1.30021365     -1.13928483     -0.45239432
C      -2.68408623     -1.30089237     -0.49745040
C      -3.51756549     -0.40389119      0.17313577
Cl     -5.22174187     -0.68421618      0.06324184
C      -2.97070556      0.66525084      0.89797283
Cl     -4.01752614      1.77277136      1.73511099
C      -1.57148498      0.82658211      0.94173101
Cl     -0.86268797      2.14027258      1.84139144
C       1.44769971      0.81378685     -0.68792678
Cl      0.61913838      1.65602073     -1.95308912
C       2.84135557      0.91267672     -0.64958156
H       3.44010628     -1.03342886      2.07813349
H       0.98423781     -1.21046096      2.01837721
H      -0.66868236     -1.84735257     -0.98862822
H      -3.10721092     -2.12957178     -1.06195056
H       3.36896071      1.50651170     -1.39126676
