52
CCOC(=O)c1nn(-c2ccc(OC)cc2)c2c1CCN(c1ccc([N+](=O)[O-])cc1)C2=O
C      -4.52621483      5.51301899      0.11561407
C      -3.02409836      5.40406114      0.29115448
O      -2.65470579      4.03099647      0.13630063
C      -1.31723748      3.78362222      0.26881819
O      -0.47990634      4.64969888      0.50569880
C      -0.96925091      2.36238789      0.10176051
N      -1.87949854      1.41532472     -0.17678053
N      -1.20726826      0.22557599     -0.17550127
C      -1.97411712     -0.97863828     -0.15757410
C      -3.32373200     -0.93177554     -0.54764781
C      -4.12162850     -2.08299779     -0.52152930
C      -3.58710149     -3.29448126     -0.09046465
O      -4.25091881     -4.48704853     -0.01296086
C      -5.60199120     -4.49922441     -0.45613500
C      -2.25434782     -3.33825141      0.32218734
C      -1.45158768     -2.19084021      0.29834642
C       0.15825732      0.44099840     -0.11851570
C       0.31672998      1.78443135      0.16577802
C       1.65357591      2.37564244      0.38576466
C       2.60935417      1.26804027      0.85888497
N       2.53486571      0.03653514      0.03804627
C       3.73758239     -0.73000880     -0.15272208
C       4.81686938     -0.62181953      0.74264731
C       5.99664246     -1.35589964      0.55817408
C       6.11388704     -2.21171496     -0.54005223
N       7.34761584     -2.98139170     -0.73951056
O       7.42036996     -3.70717397     -1.74105568
O       8.24606178     -2.85637781      0.10527407
C       5.06117168     -2.33339767     -1.44847565
C       3.88709673     -1.59427929     -1.24998850
C       1.26294946     -0.46288146     -0.36725307
O       1.10345009     -1.55016038     -0.91079299
H      -5.04650934      4.89434219      0.85429684
H      -4.85787847      6.54919812      0.22602809
H      -4.82622153      5.14888089     -0.87257304
H      -2.51846041      6.01160673     -0.46772374
H      -2.74279665      5.75279437      1.29111486
H      -3.77318943     -0.00031628     -0.88945450
H      -5.15394197     -1.99253732     -0.84212593
H      -5.67393418     -4.22615536     -1.51417907
H      -6.22616652     -3.84776250      0.16436846
H      -5.97937190     -5.52086344     -0.34985273
H      -1.83306023     -4.27737515      0.67433660
H      -0.43969741     -2.28535452      0.67660712
H       2.01691183      2.80264978     -0.55658451
H       1.62514077      3.17505973      1.13273681
H       2.37021859      0.97934619      1.89050471
H       3.62118530      1.68639018      0.83396962
H       4.75715319      0.00313974      1.62984813
H       6.80290843     -1.25200708      1.28184555
H       5.13008021     -2.98874817     -2.31466414
H       3.10475492     -1.69425935     -1.99958734
