24
COc1cc(OC)cc(OC)c1
C      -1.99309287      3.07311403     -0.39716662
O      -0.64138749      2.68422287     -0.18465997
C      -0.39081913      1.34064041     -0.10262090
C      -1.33896456      0.32312580     -0.20829995
C      -0.95551338     -1.01793216     -0.10674893
O      -1.98308075     -1.91464114     -0.22818799
C      -1.64633735     -3.29336998     -0.13219255
C       0.38680896     -1.33440551      0.10181851
C       1.34633156     -0.32270808      0.20937627
O       2.62446661     -0.76958109      0.41285611
C       3.63943082      0.22025555      0.52935467
C       0.95215497      1.01127975      0.10648788
H      -2.36738615      2.69364714     -1.35370706
H      -2.63108812      2.75367007      0.43348232
H      -2.02341917      4.16619945     -0.43835289
H      -2.38990742      0.53816431     -0.37049520
H      -1.22760727     -3.52996319      0.85154901
H      -2.56835542     -3.87108182     -0.24873432
H      -0.96406907     -3.59002602     -0.93566185
H       0.72348596     -2.36231590      0.18595401
H       4.59177533     -0.29511878      0.68709236
H       3.46328324      0.86630022      1.39575850
H       3.72686950      0.80637221     -0.39144918
H       1.66642122      1.82415185      0.18454780
