10
ClC(Cl)=C(Cl)C(Cl)=C(Cl)Cl
Cl     -0.16650866     -1.76105937     -1.74925022
C       0.67363648     -0.25397674     -1.53278722
Cl      1.91690987      0.06949053     -2.69907164
C       0.36874113      0.59481609     -0.53256288
Cl      1.20908269      2.10959947     -0.31986751
C      -0.65992671      0.34668087      0.46659285
Cl     -2.19718300      1.08525521      0.09600796
C      -0.47416015     -0.39099794      1.57797923
Cl      1.05845801     -1.12290748      1.95132599
Cl     -1.72904966     -0.67690064      2.74163344
