23
Clc1cc(Oc2ccccc2)cc(Cl)c1Cl
Cl      4.47149240     -1.21622043     -2.03373792
C       3.32534799     -0.63183613     -0.87606370
C       2.05306253     -1.21149814     -0.89339532
C       1.07777888     -0.77862295      0.00177947
O      -0.13944189     -1.41871414     -0.05192957
C      -1.26648758     -0.63787162      0.06265303
C      -1.49225100      0.47010337     -0.75794576
C      -2.66911031      1.20612741     -0.61587553
C      -3.62124610      0.82525584      0.33073940
C      -3.40331925     -0.29678427      1.13127165
C      -2.22789638     -1.03486681      0.99193067
C       1.37805321      0.20652141      0.94266425
C       2.65034773      0.78755781      0.96122706
Cl      2.93787787      2.01239444      2.15012713
C       3.63543157      0.37678792      0.04938774
Cl      5.21285064      1.10021870      0.06964838
H       1.81498202     -1.99788552     -1.60627803
H      -0.76623026      0.76063532     -1.51153429
H      -2.84827702      2.07232317     -1.24788198
H      -4.53903364      1.39841262      0.43821133
H      -4.15150974     -0.59842357      1.85987729
H      -2.06094818     -1.91347260      1.60879896
H       0.62852652      0.51985819      1.66582745
