23
Nc1cnn(-c2ccccc2)c(=O)c1Cl
N      -4.49136639      0.01136468      0.25812274
C      -3.11799374      0.16719299      0.14591431
C      -2.25454442     -0.96907063      0.52304289
N      -0.96849430     -1.01854269      0.46833887
N      -0.28323438      0.09868189      0.02638160
C       1.15071112     -0.08246383      0.00746470
C       1.71225242     -1.30765567      0.42415444
C       3.09480543     -1.52848166      0.42185015
C       3.95725035     -0.52540828      0.00037577
C       3.43426911      0.69273679     -0.41658620
C       2.04864668      0.91011513     -0.41276433
C      -0.94209746      1.28193465     -0.35242769
O      -0.40722945      2.31868918     -0.74526053
C      -2.43709171      1.24280561     -0.26665877
Cl     -3.29339400      2.67353022     -0.75713736
H      -5.00781859      0.74443387     -0.23002020
H      -4.82401105     -0.91750720      0.00723013
H      -2.78644557     -1.86401521      0.88782127
H       1.07697810     -2.12227840      0.76381023
H       3.48984372     -2.48582062      0.75113632
H       5.03102627     -0.69048586     -0.00331991
H       4.10050976      1.48542588     -0.74860639
H       1.71742811      1.88481916     -0.75286203
