12
OC(CI)CI
O      -0.22888021      1.27494034      0.94277080
C      -0.03450209      0.35136901     -0.13499889
C       1.17441821     -0.54053303      0.18248905
I       3.00600403      0.60015532      0.08721509
C      -1.29955208     -0.50748914     -0.27455499
I      -2.90959012      0.61842915     -1.17051868
H       0.55757110      1.85007485      0.97575128
H       0.14032960      0.92745273     -1.05142028
H       1.08499692     -0.96596388      1.18834889
H       1.24726986     -1.36386098     -0.53615496
H      -1.10692564     -1.37565600     -0.91427412
H      -1.63113957     -0.86891837      0.70534681
