22
O=[N+]([O-])c1cc(CCO)ccc1O
O      -3.84916032      1.60184244      0.38833929
N      -2.63990761      1.86935947      0.29366973
O      -2.16036863      3.00162007      0.44660170
C      -1.72624010      0.76776661     -0.01715987
C      -0.35512017      1.04706549     -0.15997002
C       0.54763757      0.01553806     -0.45667637
C       2.02601403      0.30179823     -0.60708135
C       2.83234049     -0.08085143      0.63400321
O       3.01241885     -1.49244658      0.69278614
C       0.06139725     -1.29085062     -0.60001121
C      -1.30075526     -1.56629266     -0.45782357
C      -2.20000154     -0.54189991     -0.16797665
O      -3.50729554     -0.92983201     -0.05202080
H       0.01757790      2.06355184     -0.04345804
H       2.16271192      1.37144065     -0.80764939
H       2.40007996     -0.23512635     -1.48768894
H       3.82686342      0.37354299      0.58012598
H       2.34188063      0.25328806      1.55437520
H       3.49037363     -1.68443949      1.51809306
H       0.74922242     -2.10750354     -0.81800725
H      -1.65917578     -2.58692064     -0.57191761
H      -4.07049310     -0.15065067      0.13944676
