25
O=NN(c1ccccc1)c1ccccc1
O       0.46258017      2.90645541     -1.49840999
N      -0.41988244      2.40640904     -0.79076715
N      -0.18719612      1.10769470     -0.41779130
C       1.15549898      0.61100009     -0.22897263
C       2.14820149      1.39443532      0.38810559
C       3.44354606      0.90232634      0.57042856
C       3.77129612     -0.37926150      0.13448903
C       2.80758440     -1.16943845     -0.48703977
C       1.51196295     -0.67848001     -0.66895521
C      -1.34062159      0.29686968     -0.10129386
C      -1.28722303     -0.71300290      0.87954118
C      -2.40993955     -1.48916513      1.18490976
C      -3.61261317     -1.26939758      0.52010355
C      -3.69644793     -0.27143584     -0.44608714
C      -2.57434814      0.50563546     -0.75060125
H       1.91368710      2.39590699      0.74213296
H       4.19551679      1.52310858      1.05093888
H       4.78031506     -0.75929864      0.27317427
H       3.06449152     -2.16555754     -0.83827917
H       0.78143803     -1.30410627     -1.17742158
H      -0.37284940     -0.89369830      1.44033205
H      -2.34379287     -2.26003235      1.94871091
H      -4.48551108     -1.87178098      0.75851788
H      -4.63459713     -0.09467585     -0.96627561
H      -2.67109622      1.26948970     -1.51948996
