47
C=C1C[C@]23C[C@@]1(O)CC[C@H]2[C@@]12C=C[C@H](O)C(C)(C(=O)O1)[C@H]2[C@@H]3C(=O)O
C      -3.89775528     -0.39232710      2.39387582
C      -3.01508385     -0.09557637      1.43014404
C      -1.63254291      0.45325504      1.68261064
C      -0.97559971      0.35731514      0.28285889
C      -2.16895932      0.73869421     -0.60802937
C      -3.23861842     -0.21620750     -0.06751222
O      -4.53879290      0.19930944     -0.42863825
C      -2.97767166     -1.65323327     -0.54999855
C      -1.50123577     -1.92173088     -0.87156313
C      -0.52927223     -1.12931938      0.01733442
C       0.88763331     -1.01801410     -0.55208813
C       1.79809184     -2.20588898     -0.37226849
C       3.13152307     -2.01625734     -0.36508995
C       3.72768718     -0.63702632     -0.57115930
O       4.45152975     -0.31683224      0.61184457
C       2.64947811      0.45477704     -0.82898300
C       3.21271483      1.86902908     -0.79709399
C       2.01160179      0.12144009     -2.16539090
O       2.38749181      0.48803671     -3.26541061
O       0.91359314     -0.68015505     -1.94815761
C       1.45700152      0.23181861      0.10784455
C       0.28071989      1.22978249      0.04927161
C       0.45043472      2.35340944      1.04354031
O       1.09337099      2.32850330      2.07735124
O      -0.23641913      3.45389780      0.68542136
H      -4.88297606     -0.78053995      2.14975944
H      -3.65556263     -0.26410832      3.44423547
H      -1.08765004     -0.11022123      2.44645403
H      -1.73661454      1.49160725      2.01583677
H      -2.46073451      1.78934119     -0.47449250
H      -1.98044541      0.60210825     -1.67884874
H      -4.74383669      0.99349144      0.09334208
H      -3.32305017     -2.37503057      0.20173642
H      -3.57500668     -1.86581137     -1.44621484
H      -1.34155995     -1.66509873     -1.92611384
H      -1.29402384     -2.99578361     -0.79594185
H      -0.46228436     -1.65255247      0.98217296
H       1.37206384     -3.19999536     -0.28013958
H       3.80447783     -2.86084316     -0.25081706
H       4.43751196     -0.67223198     -1.40654739
H       5.13911777     -0.99416642      0.72973969
H       3.50039490      2.16229395      0.21773400
H       4.10060753      1.94810045     -1.43475242
H       2.49165515      2.60345207     -1.17161345
H       1.76775123      0.05802586      1.14675177
H       0.23600309      1.68708010     -0.94809456
H      -0.04675917      4.10418276      1.39509963
