54
C(/C=C/c1ccccc1)=NCCCCCCN=C/C=C/c1ccccc1
C      -4.43953622     -0.90516264     -0.02058296
C      -5.80297081     -0.54892301     -0.45679425
C      -6.77631945     -0.41033187      0.45414162
C      -8.16251436     -0.05307757      0.11883917
C      -8.89685299      0.72781604      1.02159795
C     -10.22588736      1.06630026      0.75423773
C     -10.83855783      0.61791278     -0.41358549
C     -10.12494218     -0.17235921     -1.31168252
C      -8.79554102     -0.51065538     -1.04477149
N      -3.48196546     -1.03522261     -0.87165782
C      -2.20256148     -1.39369100     -0.24854178
C      -1.16433280     -1.56261807     -1.35629802
C       0.19442405     -2.05558325     -0.85168008
C       0.88753248     -1.16199162      0.18215294
C       1.18252733      0.24967095     -0.33455676
C       1.93161051      1.10325847      0.68903592
N       3.26835363      0.54936742      0.92499689
C       4.22662664      1.17673441      0.33952902
C       5.62631102      0.73371607      0.48827152
C       6.60451854      1.40604497     -0.13389756
C       8.02672949      1.04618912     -0.04084702
C       8.98526455      2.06838448     -0.05368234
C      10.34851524      1.76774739      0.00525078
C      10.76819183      0.44094630      0.06597207
C       9.82618178     -0.58519554      0.06269700
C       8.46252416     -0.28485007      0.00440395
H      -4.29212188     -1.05314365      1.06458531
H      -5.94577975     -0.40423501     -1.52119798
H      -6.57011286     -0.54296559      1.51357391
H      -8.43846746      1.08946057      1.93934747
H     -10.78198422      1.67940659      1.45869619
H     -11.87250715      0.88006231     -0.62174481
H     -10.60322304     -0.53112607     -2.21952300
H      -8.26779277     -1.14410917     -1.75365699
H      -2.30063865     -2.33174531      0.31144135
H      -1.89291822     -0.60134925      0.44237405
H      -1.04752950     -0.62026501     -1.90402308
H      -1.53987313     -2.28764017     -2.09023440
H       0.06784862     -3.05423492     -0.41489806
H       0.85991480     -2.18044635     -1.71509694
H       1.82719370     -1.65052743      0.46735116
H       0.28340897     -1.10459251      1.09466968
H       0.24161533      0.75789485     -0.57297647
H       1.76353374      0.18894737     -1.26285561
H       1.96898342      2.14309647      0.34022741
H       1.38682264      1.11718917      1.63992434
H       4.05950081      2.06192688     -0.30023752
H       5.79393499     -0.13098882      1.11939403
H       6.38200996      2.28394298     -0.73585250
H       8.68004610      3.11141739     -0.10027189
H      11.08180440      2.57002315      0.00308869
H      11.82845423      0.20636749      0.11111529
H      10.15128901     -1.62173226      0.10057900
H       7.74925861     -1.10506053     -0.01609253
