45
CCCCCCCCCCNC(=O)c1cccnc1
C       5.40615843      1.85815600      1.57437418
C       4.76810394      0.48725568      1.73295657
C       4.38002164     -0.10999291      0.37969109
C       3.73386370     -1.48660303      0.54701448
C       3.42722132     -2.18300322     -0.78244473
C       2.48198006     -1.43475386     -1.72757348
C       1.10429693     -1.15910302     -1.12007455
C       0.16865130     -0.51195441     -2.14468437
C      -1.25391404     -0.30493918     -1.61931986
C      -1.33765532      0.71207294     -0.48211686
N      -2.71396392      0.97999417     -0.10985140
C      -3.40069767      0.13972883      0.74419100
O      -2.89655425     -0.84337689      1.27448201
C      -4.82818474      0.45708156      0.98328277
C      -5.36685906      1.73901530      0.84703937
C      -6.72396531      1.94011339      1.09744032
C      -7.49399962      0.85273793      1.48047990
N      -7.00334759     -0.39567593      1.63274912
C      -5.67843005     -0.56437216      1.38977304
H       5.67613878      2.26610431      2.55344980
H       4.71631033      2.55867375      1.09298757
H       6.31569593      1.79973241      0.96803191
H       5.47103084     -0.17873997      2.24677995
H       3.87980959      0.57536960      2.36929943
H       3.68668790      0.57166056     -0.12570202
H       5.27156321     -0.19643498     -0.25303257
H       2.81954107     -1.39848091      1.14500735
H       4.41177062     -2.13331493      1.11845184
H       3.00110227     -3.17037449     -0.56467402
H       4.37075967     -2.36616470     -1.31168111
H       2.94089619     -0.49337209     -2.05090888
H       2.35971935     -2.04263501     -2.63299994
H       1.21216384     -0.49741442     -0.25497418
H       0.66539874     -2.09834614     -0.76306873
H       0.58409974      0.44921374     -2.47111858
H       0.11426363     -1.15118901     -3.03464523
H      -1.88268925      0.03817683     -2.45101183
H      -1.67234590     -1.26619810     -1.29663796
H      -0.80139031      0.35607603      0.40327075
H      -0.89949049      1.66764639     -0.78835206
H      -3.22682457      1.64224441     -0.67467567
H      -4.74779274      2.58874973      0.57864701
H      -7.17030067      2.92447959      1.00561431
H      -8.55525028      0.96138416      1.68716654
H      -5.31359324     -1.57922797      1.53123422
