13
CC(=O)OC(C)=O
C       2.27468568      0.19270476     -0.52614166
C       1.18419217      0.13142478      0.50489284
O       1.40429345      0.19998502      1.70377382
O      -0.00686173     -0.00595860     -0.13304236
C      -1.12547800     -0.08044307      0.63350482
C      -2.31577460     -0.22838276     -0.27052584
O      -1.22100575     -0.04083422      1.84996122
H       3.24151608      0.30350057     -0.02651203
H       2.12039805      1.05579545     -1.17877278
H       2.28845534     -0.73286735     -1.10733372
H      -2.39340103      0.64174385     -0.92742143
H      -2.22534271     -1.14691949     -0.85599129
H      -3.22567694     -0.28974893      0.33360841
