33
Cn1nc(S(N)(=O)=O)sc1=NS(=O)(=O)c1ccccc1C(=O)O
C       1.48680619     -2.35530197     -0.56431655
N       1.93912881     -0.97863706     -0.63759067
N       3.31098175     -0.81912341     -0.63372048
C       3.59449600      0.45227041     -0.60762405
S       5.28154789      1.00739009     -0.60084497
N       6.30505317     -0.34259236     -0.61492831
O       5.52367754      1.65150460      0.67202941
O       5.52276483      1.67847037     -1.86006962
S       2.24234071      1.56635714     -0.58227895
C       1.15242756      0.15926251     -0.57089527
N      -0.08140130      0.48038141     -0.51515964
S      -1.25921092     -0.59706064     -0.48844442
O      -1.12509855     -1.51426367      0.62581435
O      -1.40747986     -1.13917486     -1.82711536
C      -2.71336744      0.37716622     -0.16888585
C      -3.62799892      0.58804896     -1.21262591
C      -4.81286850      1.28575542     -0.97368065
C      -5.09443997      1.76574716      0.30364372
C      -4.18856832      1.55391848      1.34476601
C      -2.99027390      0.85794173      1.11519109
C      -2.04707676      0.70570995      2.24104149
O      -0.84942630      0.90178860      2.22028996
O      -2.68795135      0.31028692      3.35454936
H       2.30277882     -3.04753706     -0.80409005
H       0.69254769     -2.55485519     -1.28635799
H       1.14845545     -2.59596450      0.44692088
H       6.86172970     -0.35210415      0.24122309
H       6.88032854     -0.32080104     -1.45843989
H      -3.43123038      0.20838381     -2.21384907
H      -5.52011654      1.44904220     -1.78423974
H      -6.01961086      2.30676960      0.49001803
H      -4.41786095      1.93976934      2.33648293
H      -1.97108383      0.19253554      4.01318712
