27
Nc1nc2c(ncn2COCCO)c(=O)[nH]1
N      -3.37513290     -1.53368034      1.26148237
C      -2.72296276     -0.70728359      0.40546280
N      -1.58630720     -0.16830395      0.75821550
C      -1.05472266      0.62779627     -0.20073627
C      -1.56115704      0.91931663     -1.44798555
N      -0.73624878      1.76874350     -2.14145024
C       0.27046931      1.98879562     -1.31916070
N       0.11701716      1.32308322     -0.12941119
C       1.01644485      1.39460753      0.99924861
O       2.26369344      0.77984620      0.66732389
C       2.21740970     -0.64731424      0.81230084
C       3.60535329     -1.19860779      0.50186892
O       3.95430851     -0.90662820     -0.84912690
C      -2.82591559      0.32288399     -1.81776256
O      -3.42447211      0.49765265     -2.87442802
N      -3.32841502     -0.49910470     -0.81756714
H      -2.79076795     -1.81414170      2.04298794
H      -3.86927756     -2.31387164      0.84830298
H       1.12911569      2.61465072     -1.52754539
H       0.56131698      0.94532413      1.88787622
H       1.19931396      2.45515255      1.20048333
H       1.93404986     -0.90802439      1.83743535
H       1.48905341     -1.05939258      0.10621759
H       4.36138456     -0.73869061      1.14589008
H       3.63291814     -2.28329312      0.63714034
H       3.75394388      0.04021134     -0.97635815
H      -4.23041315     -0.89972753     -1.01070468
