14
N/C(N=O)=C(\N)NO
N       1.86069231      0.46456854      0.74041100
C       0.77220954      0.62484538     -0.12244094
N       0.84095001      1.57798550     -1.06461243
O       1.96773157      2.04314608     -1.28126771
C      -0.33102564     -0.18272205     -0.02447159
N      -0.39743539     -1.13495393      0.99894522
N      -1.42872011     -0.10503760     -0.86894555
O      -2.61996863     -0.72196578     -0.49050562
H       1.98415760     -0.52926512      0.92543952
H       2.69279638      0.85960905      0.30389576
H       0.08016888     -0.77785148      1.82662867
H      -1.38616003     -1.27756789      1.20368167
H      -1.54433931      0.79630437     -1.33691027
H      -2.49105719     -1.63709508     -0.80984774
