19
CC(=O)CCCCCl
C      -3.05492373      0.16572475     -0.46660411
C      -1.65172170      0.29926054      0.06562192
O      -1.19455971      1.39714753      0.38024295
C      -0.86062606     -0.99167863      0.19802437
C       0.57829135     -0.78595400      0.67212984
C       1.47974598     -0.20770955     -0.42633947
C       2.89507685      0.09307719      0.05745127
Cl      3.78536224     -1.39112200      0.47131744
H      -3.02650410     -0.26700539     -1.46962012
H      -3.52443498      1.15184322     -0.52096940
H      -3.64136757     -0.46889386      0.20226195
H      -1.38810355     -1.61500945      0.92921530
H      -0.87214420     -1.51030602     -0.76669243
H       0.59600382     -0.13089884      1.55148432
H       0.97117154     -1.75838473      0.99058212
H       1.04851513      0.72707448     -0.80207878
H       1.51527652     -0.89867725     -1.27771029
H       3.46145545      0.60003030     -0.72948138
H       2.88348671      0.73821983      0.94116452
