41
CC(=O)[O-].CC(=O)[O-].CCCC[Sn+2]CCCC
C      -0.66961285      0.01636395      0.01625368
C       0.81321642     -0.00414963      0.01010113
O       1.48609211     -1.08077824      0.04379539
O       1.55858743      1.17431930     -0.03362908
C      -0.67098510     -0.02262092     -0.03161653
C       0.80936444      0.06683584      0.05407978
O       1.40402131      1.16421896      0.21321156
O       1.61874920     -1.05837089     -0.03701396
C      -5.24902675      0.38451608     -0.65039255
C      -4.31157208     -0.36850924      0.26033188
C      -2.89888314     -0.03144122     -0.16837082
C      -1.87641996     -0.75525094      0.70534849
Sn      0.07819015     -0.20453158      0.00907708
C       2.06283069      0.24445305     -0.66925491
C       3.03024517     -0.62429938      0.10804194
C       4.45919850     -0.34898460     -0.33164849
C       4.82438700      1.09417900     -0.09618688
H      -0.99679373     -1.04443399     -0.11672308
H      -1.10469783      0.37694085      0.94593668
H      -1.08679156      0.56173776     -0.86573472
H      -1.12971253     -0.37300574      0.92454923
H      -0.93243985     -0.74832129     -0.85080092
H      -1.09899748      0.97126404     -0.27240916
H      -5.35046571      1.41371237     -0.24408991
H      -4.78746394      0.46580129     -1.65309965
H      -6.21489577     -0.15740210     -0.65163654
H      -4.48548290     -1.45239976      0.21639349
H      -4.47875313     -0.02009296      1.29626769
H      -2.74844932     -0.31953936     -1.22917543
H      -2.67834381      1.04153875     -0.08149480
H      -2.03267970     -0.44504378      1.75900021
H      -1.95786650     -1.83842598      0.64011897
H       2.33072351      1.30398823     -0.48404882
H       2.17086677      0.07813364     -1.75760728
H       2.74486330     -1.67450380     -0.10029657
H       2.87366916     -0.42100722      1.17110674
H       4.58683315     -0.66745739     -1.38506049
H       5.10523433     -1.04508655      0.27041364
H       4.08259245      1.62837686      0.51424853
H       4.90826725      1.62277092     -1.06959343
H       5.81240127      1.09650568      0.44776821
