28
Nc1ccccc1C=Nc1ccccc1O
N       1.91672692      1.43349677      1.36562085
C       2.46968857      0.37545580      0.62241241
C       3.85774291      0.18974467      0.65448357
C       4.44915669     -0.92920809      0.06185435
C       3.65605532     -1.90147520     -0.54179710
C       2.26914526     -1.75889941     -0.54812016
C       1.67661580     -0.63129053      0.03849525
C       0.19918175     -0.54535210     -0.02386878
N      -0.44816528      0.56144195      0.18922239
C      -1.85025762      0.47427718      0.09308119
C      -2.62126278     -0.07351989      1.11947582
C      -4.01202537     -0.13938153      0.99268527
C      -4.63730581      0.35117122     -0.15716163
C      -3.87699848      0.91714532     -1.18043050
C      -2.49665185      0.98013330     -1.04159978
O      -1.75634717      1.55533435     -2.03970384
H       0.93732941      1.60140591      1.10700210
H       2.47083701      2.28206257      1.36685866
H       4.49138205      0.91593989      1.15808176
H       5.52968743     -1.04731014      0.08906667
H       4.11760326     -2.77437722     -0.99688205
H       1.66066789     -2.52870156     -1.01581780
H      -0.33573901     -1.47648841     -0.29258481
H      -2.13945044     -0.44433792      2.01956213
H      -4.60898474     -0.56835131      1.79365932
H      -5.71918222      0.30071696     -0.25131363
H      -4.35412395      1.31211436     -2.07184103
H      -0.84532554      1.56825305     -1.68192719
