30
OC1COC(Oc2ccccc2)C(O)C1O
O      -3.14173304     -2.04828124      1.35004730
C      -2.61589519     -1.33903475      0.22795932
C      -1.21971069     -1.84530453     -0.12669487
O      -0.64021421     -1.09618296     -1.19885627
C      -0.50318828      0.29686692     -0.89783914
O       0.34286640      0.55611169      0.23314087
C       1.69189765      0.40939793      0.06764498
C       2.46488274      0.88450791      1.13112604
C       3.85752890      0.79680522      1.09332255
C       4.48673481      0.22569921     -0.00965220
C       3.72207921     -0.26012752     -1.06860407
C       2.32704236     -0.17131524     -1.03022081
C      -1.88438656      0.91683128     -0.59721804
O      -1.79458515      2.30472331     -0.23334155
C      -2.56568249      0.15615683      0.54200359
O      -3.90677131      0.63994743      0.73030270
H      -3.95296945     -1.56283610      1.60206155
H      -3.29755043     -1.51146249     -0.61402551
H      -0.55506626     -1.83076619      0.74576707
H      -1.27773265     -2.89291699     -0.44220979
H      -0.09791497      0.81269011     -1.77771479
H       1.98144370      1.32697648      1.99839356
H       4.44867084      1.17080396      1.92504375
H       5.57073272      0.15262595     -0.04188961
H       4.21121007     -0.71662977     -1.92566911
H       1.76905666     -0.58067194     -1.86661419
H      -2.51876791      0.86278511     -1.49011566
H      -1.00506403      2.39327690      0.33676440
H      -2.05385573      0.33424332      1.49563174
H      -3.84305770      1.61508013      0.67643413
