9
ClC(Cl)=C(Cl)C(Cl)(Cl)Cl
Cl      2.83943402     -1.05694918     -0.09068124
C       1.29732564     -0.34061072     -0.47712225
Cl      1.19908702      0.23164868     -2.11409666
C       0.28618084     -0.24529297      0.41571348
Cl      0.55095662     -0.87692589      2.03935012
C      -1.08414750      0.36691318      0.14683142
Cl     -1.93426944     -0.52721922     -1.16483353
Cl     -0.92783568      2.10280556     -0.30581632
Cl     -2.22673151      0.34563057      1.55065497
