13
CC1(CCl)CO1
C      -0.79392488      1.22334386     -0.00317008
C      -0.11515120     -0.10796984     -0.10010544
C       1.26146073     -0.14168170     -0.69029994
Cl      2.43675228      0.43155334      0.51474758
C      -0.58129019     -1.24709914      0.78102626
O      -0.97724822     -1.14744951     -0.59426859
H      -0.80976167      1.71862163     -0.97945794
H      -0.26997078      1.87368535      0.70406393
H      -1.83029799      1.12688000      0.33840814
H       1.55759689     -1.15446938     -0.98176095
H       1.33242299      0.50285211     -1.57165315
H      -1.33305146     -1.05139179      1.53597321
H       0.12246350     -2.02687492      1.04649698
