39
CN(CC(=O)NCCC(=O)Nc1nnc(S(N)(=O)=O)s1)C(=N)N
C      -1.98609406      2.60466484      0.15951152
N      -0.88449432      2.84999082     -0.77156002
C      -1.31275104      2.90272170     -2.18598130
C      -1.28028142      1.49357805     -2.79121357
O      -2.28863878      0.79560488     -2.88732451
N      -0.01150406      1.05889443     -3.14767583
C       0.24393779     -0.36617747     -3.29211808
C       0.31083710     -1.01061889     -1.91075747
C       0.67552776     -2.47558239     -1.94192142
O       0.95547931     -3.06006664     -2.99182863
N       0.73043419     -3.17464295     -0.76779864
C       0.55929389     -2.65403750      0.47929025
N       0.24994480     -1.43189249      0.84906817
N       0.23776950     -1.29718515      2.22081622
C       0.53748575     -2.43853978      2.81536984
S       0.68845141     -2.70298595      4.54672948
N       0.54415570     -1.23223627      5.36218860
O       2.04991392     -3.13651227      4.77761101
O      -0.45176465     -3.49582063      4.95247312
S       0.82191625     -3.75324126      1.76436161
C       0.41035998      2.56764397     -0.46280113
N       1.43686531      2.94109232     -1.14833615
N       0.64993873      1.82284075      0.63228097
H      -2.72644976      3.40979167      0.07845265
H      -2.47963301      1.65624830     -0.07286806
H      -1.65440155      2.59403128      1.20278167
H      -2.33113565      3.29675331     -2.28095478
H      -0.67816973      3.56980058     -2.78045540
H       0.75973253      1.59107317     -2.73683125
H      -0.54733484     -0.82101255     -3.89704526
H       1.19739316     -0.47450304     -3.82564488
H      -0.66375816     -0.90072480     -1.41818042
H       1.07132687     -0.48669236     -1.32744766
H       0.99291979     -4.14734933     -0.84641885
H      -0.16195944     -1.32186453      6.09518369
H       1.45595667     -0.95682144      5.72979765
H       1.13858531      3.60518672     -1.86998993
H       1.63659977      1.59979752      0.68814148
H       0.10354501      0.97879337      0.71681644
