29
Nc1ccc(S(=O)(=O)Nc2ccc(I)cc2)cc1
N      -3.67577159      0.53619347      1.85313397
C      -2.89663850      0.28103773      0.71942818
C      -2.76158746      1.25700056     -0.27367924
C      -1.88910513      1.06796296     -1.34849099
C      -1.10653293     -0.08734816     -1.40110906
S       0.00792728     -0.32998736     -2.76585963
O       0.29334284     -1.74487273     -2.86929327
O      -0.51794544      0.41305154     -3.89230454
N       1.39920511      0.49383769     -2.27137416
C       1.99981215      0.15505858     -1.02830715
C       1.96248155      1.07714877      0.01883534
C       2.50832677      0.74438885      1.26129385
C       3.09093893     -0.50945062      1.44868832
I       3.89737497     -1.00734931      3.29747893
C       3.13278848     -1.43137095      0.40294583
C       2.58418429     -1.09697515     -0.83739241
C      -1.20297511     -1.05570548     -0.40010843
C      -2.07690879     -0.85129943      0.67044641
H      -3.96496508     -0.30090144      2.35034383
H      -4.45270649      1.16834444      1.68621930
H      -3.34311581      2.17408743     -0.21956634
H      -1.82240905      1.82482018     -2.12623691
H       1.36886859      1.47736990     -2.53390010
H       1.49917254      2.05107484     -0.11150521
H       2.46627199      1.46822704      2.07145015
H       3.58534963     -2.41098210      0.53504268
H       2.62243491     -1.81877653     -1.65032091
H      -0.59218239     -1.95506819     -0.43236711
H      -2.11563627     -1.58951655      1.46775246
