37
CCN(CC)CCOC(=O)c1ccc(N)cc1
C      -4.81579858      0.71110416      1.28878412
C      -3.55203685      0.02683206      0.77521718
N      -2.88704750      0.81101889     -0.28652466
C      -3.59451963      0.64708940     -1.57222952
C      -3.26337950      1.76593027     -2.55615971
C      -1.47289919      0.39118917     -0.41547594
C      -0.56824682      0.97127665      0.68586982
O       0.81380006      0.66181070      0.42256251
C       1.21205428     -0.58069159      0.79157872
O       0.50494545     -1.43628261      1.29989179
C       2.65469654     -0.78112198      0.48660885
C       3.22974194     -2.02109890      0.78800104
C       4.58139415     -2.25714677      0.51576038
C       5.38827569     -1.25051230     -0.01929089
N       6.70430315     -1.53039101     -0.40001009
C       4.79709252     -0.03484923     -0.37233542
C       3.44542847      0.21101208     -0.10440228
H      -4.60083584      1.73145264      1.62380211
H      -5.21626029      0.15677940      2.14426537
H      -5.60325494      0.75588376      0.53153843
H      -3.78299131     -0.98953509      0.43173185
H      -2.89238139     -0.08231333      1.64285336
H      -4.67882444      0.68657788     -1.42309199
H      -3.37899106     -0.33040856     -2.02204345
H      -3.88624591      1.66869471     -3.45175042
H      -3.46453425      2.74814610     -2.11528824
H      -2.21951041      1.74145523     -2.88056672
H      -1.39083357     -0.70286956     -0.45144412
H      -1.04994753      0.73671973     -1.36605994
H      -0.84220481      0.62998694      1.68998442
H      -0.64579690      2.06442316      0.68945109
H       2.62686103     -2.81559338      1.22364598
H       4.99792182     -3.23862231      0.72776880
H       7.29617958     -0.70936522     -0.47949511
H       7.14288348     -2.26957588      0.14056823
H       5.38596859      0.73699870     -0.86170490
H       3.02499395      1.17599610     -0.37560340
