46
CCCCCCCCCCC(C)(C)C(=O)NO
C       5.92737841      1.13009746      0.87335741
C       5.13946405     -0.16276155      0.72928295
C       4.42551759     -0.29965737     -0.61818765
C       3.30350441      0.72302406     -0.81441224
C       2.58829476      0.58900023     -2.16317832
C       1.88660534     -0.74900759     -2.41848439
C       0.86401086     -1.17660552     -1.36170193
C      -0.29208807     -0.18733179     -1.19962560
C      -1.33558823     -0.71148897     -0.20651149
C      -2.49009214      0.28593574     -0.04521054
C      -3.61880850     -0.12106880      0.94622353
C      -3.05674390     -0.27344139      2.36998496
C      -4.27850503     -1.43890437      0.50520191
C      -4.68207532      0.99977858      0.94726359
O      -4.56837051      2.05185446      0.31617323
N      -5.80245895      0.77004239      1.71465178
O      -6.70201579      1.86032614      1.80390903
H       6.49527117      1.12070363      1.80932498
H       5.26806803      2.00247060      0.89664368
H       6.63643359      1.25260990      0.04859850
H       5.83300230     -1.00499046      0.84023829
H       4.41308717     -0.24125000      1.54653171
H       5.15518473     -0.21037242     -1.43199188
H       4.01211397     -1.31304228     -0.67206018
H       3.71900907      1.73599903     -0.76326473
H       2.58044167      0.64482544      0.00523003
H       3.31683951      0.75333964     -2.96732328
H       1.85794632      1.40221192     -2.25167677
H       2.63874070     -1.54068584     -2.51691346
H       1.38480575     -0.69213671     -3.39287664
H       1.36093370     -1.33046619     -0.39705597
H       0.45986706     -2.15297419     -1.65766246
H       0.08622291      0.77782536     -0.84473819
H      -0.76613482     -0.01393721     -2.17320469
H      -1.71407238     -1.67398219     -0.56620969
H      -0.84815327     -0.88765158      0.75802505
H      -2.07040467      1.25125519      0.27065608
H      -2.93372129      0.46246738     -1.03508343
H      -3.83968980     -0.51300488      3.09732692
H      -2.31620838     -1.07711564      2.43104461
H      -2.58008320      0.65539974      2.70346576
H      -5.11359608     -1.71630762      1.15806921
H      -4.67728939     -1.35532333     -0.51218144
H      -3.57230121     -2.27489422      0.52743138
H      -5.81510221      0.12227577      2.49388358
H      -6.27923993      2.52695943      1.21703679
