34
CCCSC(=O)N(CCC)CCC
C       3.39207041      0.57430676      2.07883885
C       3.45570119      0.23293009      0.59630900
C       3.00485310     -1.19160028      0.26617913
S       1.26122566     -1.52866930      0.65760725
C       0.47151259     -0.56846187     -0.58734844
O       1.08200512     -0.26445156     -1.60651074
N      -0.84984116     -0.19265142     -0.34536763
C      -1.53694020      0.58083143     -1.38092981
C      -1.59599139      2.08036449     -1.07410824
C      -0.22944039      2.74920347     -1.06381464
C      -1.63762424     -0.55451306      0.84052774
C      -2.34896773     -1.89730327      0.66502075
C      -3.14782667     -2.26769666      1.90396303
H       3.82716380      1.56370535      2.25359936
H       2.36172854      0.59823759      2.44557522
H       3.95560275     -0.15162158      2.67353156
H       2.87435581      0.96790382      0.02823411
H       4.49602930      0.34357023      0.26614163
H       3.19116541     -1.41020792     -0.79064276
H       3.60878929     -1.90290758      0.84048755
H      -2.55508313      0.18624624     -1.47792063
H      -1.05363253      0.42766154     -2.35257321
H      -2.08581526      2.25517502     -0.10980675
H      -2.21549156      2.56610578     -1.83733036
H       0.39587780      2.36726062     -0.25121935
H       0.29455155      2.58865213     -2.01121468
H      -0.34068809      3.82844478     -0.91791322
H      -0.99532771     -0.57565603      1.72603916
H      -2.37401135      0.23688523      1.02205058
H      -3.02333156     -1.85307832     -0.19813364
H      -1.62406855     -2.69101343      0.45324829
H      -3.65314140     -3.22726417      1.75640470
H      -2.49547443     -2.35829189      2.77834960
H      -3.90993496     -1.51209621      2.11972299
