18
CCCCOC
C      -2.93629506     -0.00869334      0.40916570
C      -1.55300388      0.62137865      0.38107711
C      -0.46156474     -0.43268377      0.21811291
C       0.92744936      0.19442845      0.18940226
O       1.88736410     -0.84978652      0.03543943
C       3.21399293     -0.34111023     -0.00017636
H      -3.13963560     -0.55033379     -0.52015238
H      -3.03087508     -0.71046650      1.24398482
H      -3.70247629      0.76403357      0.52654252
H      -1.39412383      1.18153890      1.30986343
H      -1.50228003      1.34078021     -0.44448627
H      -0.51330353     -1.16262640      1.03573526
H      -0.62060080     -1.00464897     -0.70468859
H       1.11979340      0.73310183      1.12445576
H       1.01038447      0.89418904     -0.65020921
H       3.45142792      0.17557049      0.93473899
H       3.90229473     -1.18216142     -0.11895418
H       3.34145193      0.33748980     -0.84909163
