22
CC[C@H](C)[C@@H](N)C(=O)O
C      -1.93873582     -0.39680595     -1.82449412
C      -1.23473576      0.42610936     -0.75228625
C      -0.04590363     -0.30658417     -0.07909949
C      -0.57296410     -1.50642505      0.72638535
C       0.76974470      0.68241165      0.80035633
N       1.70274951     -0.00625799      1.75219038
C       1.65225145      1.63967086     -0.05072424
O       1.33926692      2.18513600     -1.09500986
O       2.86377417      1.82950038      0.54284566
H      -1.22608577     -0.76320992     -2.56992209
H      -2.68017825      0.22122809     -2.34165301
H      -2.46983956     -1.25214544     -1.39839072
H      -1.96690298      0.72355803      0.00880628
H      -0.89587909      1.35064382     -1.22762254
H       0.61253164     -0.69431338     -0.86820090
H      -1.21344835     -1.17652488      1.55134595
H      -1.15276753     -2.18965860      0.09926434
H       0.24435556     -2.10259890      1.14396521
H       0.10265322      1.31441048      1.39834236
H       1.13693345     -0.43565248      2.49003585
H       2.12538661     -0.80181320      1.26013972
H       2.84779361      1.25932130      1.35336769
