28
O=C(O)c1ccc(Cl)c(N=Nc2ccc(O)cc2)c1
O       5.73313624      1.20014279      0.01799573
C       4.53192430      1.26187710     -0.16482124
O       3.93431231      2.41157284     -0.52058302
C       3.57768775      0.13515920     -0.03263423
C       4.07939407     -1.11987700      0.33224056
C       3.21560837     -2.20925856      0.46192697
C       1.84649786     -2.04615184      0.23105116
Cl      0.82257866     -3.42918734      0.39486518
C       1.32525682     -0.79090268     -0.12335797
N      -0.04712103     -0.61211982     -0.38430115
N      -0.59359525     -0.03155364      0.58017317
C      -1.97198530      0.11663175      0.34330535
C      -2.51309873      1.40074076      0.20593743
C      -3.88395549      1.57926106     -0.00122595
C      -4.71479074      0.46485307     -0.06103075
O      -6.05725748      0.58985666     -0.26059502
C      -4.19941808     -0.81762986      0.08541623
C      -2.82946195     -0.99086513      0.29217031
C       2.20553943      0.29379001     -0.26348165
H       4.67062716      3.05736045     -0.56978794
H       5.14484240     -1.25440624      0.51366307
H       3.61503138     -3.18152246      0.74097733
H      -1.85731612      2.26580107      0.25880087
H      -4.27847014      2.58434699     -0.10978387
H      -6.27359373      1.53248903     -0.34889051
H      -4.85920709     -1.67936683      0.04124462
H      -2.42443413     -1.99233780      0.41322747
H       1.80126852      1.26129642     -0.55239894
