21
CCCCC(C)O
C       3.17002332      0.17403361     -0.08160332
C       1.87855556      0.06895371      0.71387464
C       0.66797132     -0.10850580     -0.20369141
C      -0.62738791     -0.21018309      0.60253367
C      -1.86237388     -0.49856692     -0.25606545
C      -2.19915869      0.62462584     -1.22786967
O      -2.96806614     -0.68004713      0.62891614
H       4.02202976      0.29966946      0.59382939
H       3.14446423      1.03310598     -0.75959622
H       3.33862458     -0.72902371     -0.67691030
H       1.95046364     -0.77926178      1.40457481
H       1.75567707      0.97307100      1.32150269
H       0.61527893      0.74040865     -0.89446958
H       0.79626539     -1.01396343     -0.80894582
H      -0.53051846     -1.00656929      1.35236243
H      -0.78495019      0.71228642      1.17664986
H      -1.72192903     -1.43652532     -0.80492221
H      -1.41879042      0.75864019     -1.98181418
H      -3.14013426      0.41194365     -1.74715310
H      -2.34248532      1.57162722     -0.69611027
H      -3.74355951     -0.90571924      0.08732666
