30
CCc1c(C(=O)O)c(=O)cnn1-c1ccc(Cl)cc1
C      -1.06525139      1.86477418     -1.18873690
C      -1.12231882      1.29763776      0.22634619
C      -1.03078297     -0.22997615      0.23474609
C      -2.12283165     -0.98697307      0.48620143
C      -3.42392750     -0.44154909      0.86833852
O      -3.66297766      0.24014978      1.84794559
O      -4.36766673     -0.74305842     -0.03878489
C      -1.96834803     -2.43718589      0.32589970
O      -2.78141119     -3.27370331      0.69013308
C      -0.72532285     -2.90199917     -0.35076255
N       0.29129109     -2.13370494     -0.56416950
N       0.19330976     -0.83057250     -0.13567239
C       1.47307571     -0.20227738     -0.02877559
C       1.87009763      0.47061027      1.13853887
C       3.13479062      1.06094589      1.23475206
C       4.02394158      0.97068227      0.16701807
Cl      5.57875535      1.69682445      0.28503319
C       3.66462687      0.28722970     -0.99074253
C       2.40026616     -0.30239118     -1.08194461
H      -1.87297591      1.45977743     -1.80771308
H      -1.17722380      2.95360632     -1.16042067
H      -0.11384908      1.64189711     -1.68058756
H      -2.05259730      1.65372965      0.67788927
H      -0.34103655      1.75320141      0.83849569
H      -5.19406037     -0.36401548      0.32814890
H      -0.72024126     -3.95913943     -0.65656632
H       1.20537938      0.51540387      1.99780874
H       3.42038900      1.57681471      2.14752714
H       4.35886914      0.20325033     -1.82213848
H       2.12803079     -0.83998911     -1.98780748
