46
CCCCC(CC)CC(CC)(CC)C(=O)NO
C       5.55493231     -1.38501218      0.13956204
C       4.11628127     -1.86609926      0.24182208
C       3.13403493     -0.69387334      0.26658779
C       1.68685868     -1.18592902      0.37835292
C       0.63179846     -0.05059991      0.28909650
C       0.78062215      0.93101347      1.47265782
C       1.36315184      2.27075240      1.04093025
C      -0.78110019     -0.70030804      0.21882749
C      -1.97457964      0.15879309     -0.33054485
C      -1.60526003      0.90055253     -1.65086297
C      -1.17733298      0.01301562     -2.81404255
C      -3.17288331     -0.82151223     -0.56520514
C      -4.45394614     -0.18038495     -1.09016611
C      -2.40518780      1.21627646      0.71212829
O      -2.39831956      2.42940766      0.49499155
N      -2.80446535      0.73710486      1.93950325
O      -3.29860325      1.71339495      2.83743195
H       5.82003046     -0.75635544      0.99559688
H       5.71023764     -0.80393117     -0.77500404
H       6.23960783     -2.23867565      0.12016418
H       4.00159655     -2.46723589      1.15125704
H       3.89523398     -2.51975725     -0.60988570
H       3.25005504     -0.10058330     -0.64839479
H       3.37993104     -0.04169232      1.11151652
H       1.55687728     -1.73916489      1.31737107
H       1.50739766     -1.90165915     -0.43448584
H       0.82655391      0.47344329     -0.65190845
H       1.41843164      0.50431579      2.25582212
H      -0.17498296      1.12388971      1.96138085
H       1.47116638      2.93123977      1.90703169
H       0.70715197      2.76722699      0.31911374
H       2.34909521      2.15062766      0.58296306
H      -1.02959727     -1.09580507      1.21294686
H      -0.70459214     -1.58688297     -0.42591211
H      -0.80788077      1.62890462     -1.45968069
H      -2.45366706      1.51127499     -1.98519914
H      -0.90406368      0.63634732     -3.67211275
H      -0.30741212     -0.59955717     -2.56298325
H      -1.98653796     -0.64756514     -3.13711065
H      -2.87635540     -1.61012403     -1.26783746
H      -3.41782002     -1.34813931      0.36515979
H      -4.31828363      0.23134116     -2.09401190
H      -5.24505543     -0.93508557     -1.15359531
H      -4.80931934      0.61634355     -0.43052996
H      -3.11254462     -0.21384515      2.10267585
H      -3.18125557      2.54451249      2.32458206
