58
CC(C)CCOC(=O)C1CN2CCC1CC2C(O)c1ccnc2ccccc12
C       6.87554970     -0.06169323     -2.78372229
C       6.46526599     -0.03230478     -1.30967622
C       7.25352871      1.05404571     -0.57600304
C       4.94486217      0.17477423     -1.19854472
C       4.40461452      0.07896220      0.22795861
O       2.98082738      0.25681821      0.16202759
C       2.35031254      0.26226006      1.36901534
O       2.90098432      0.08673327      2.44463022
C       0.87096304      0.51449485      1.16407615
C       0.18282570      1.04736540      2.43568070
N      -1.17928502      0.45797200      2.59460993
C      -0.99118238     -0.97641821      2.92510220
C      -0.09317881     -1.68244840      1.89667613
C       0.13082584     -0.75322735      0.69051848
C      -1.26794655     -0.32131773      0.20835726
C      -1.90562364      0.59005635      1.27994856
C      -3.44179929      0.39357889      1.45925811
O      -3.86614595      1.25911699      2.52649416
C      -4.24109937      0.73353919      0.21407229
C      -4.39025325      2.08315480     -0.13351435
C      -5.07719407      2.41124018     -1.28276842
N      -5.61942052      1.50249460     -2.11095212
C      -5.49917468      0.20621714     -1.79115300
C      -6.07579802     -0.71783084     -2.65067345
C      -6.01138835     -2.09091903     -2.41490088
C      -5.35496885     -2.55775039     -1.28772521
C      -4.76679572     -1.64794027     -0.40509087
C      -4.81990240     -0.25109025     -0.63430985
H       6.37265941     -0.87947156     -3.31152628
H       6.61853614      0.87477367     -3.28652572
H       7.95444339     -0.21408119     -2.88576272
H       6.72529227     -1.00331402     -0.86884122
H       7.09151622      1.00208928      0.50416882
H       6.96518692      2.05237357     -0.91679373
H       8.32759241      0.93908034     -0.74677783
H       4.66322189      1.14918576     -1.62372868
H       4.42515992     -0.57096923     -1.81559468
H       4.62995161     -0.90622518      0.65434242
H       4.83086690      0.86544441      0.85909486
H       0.79134718      1.29325186      0.39173524
H       0.76320107      0.87001915      3.34856677
H       0.08907126      2.13821670      2.36467447
H      -0.54945771     -1.07101186      3.92465717
H      -1.96128121     -1.48138189      2.98997906
H      -0.56922459     -2.61439425      1.57089405
H       0.86565056     -1.95343233      2.35330868
H       0.67388979     -1.27676298     -0.10188708
H      -1.18644526      0.23087834     -0.73589332
H      -1.87503929     -1.21110545      0.01441326
H      -1.76758968      1.63510373      0.96496539
H      -3.66479936     -0.61319092      1.80832508
H      -3.12904478      1.22858592      3.17040346
H      -3.98156156      2.87016069      0.49363160
H      -5.21497745      3.44827933     -1.57516235
H      -6.59587786     -0.35440580     -3.53478545
H      -6.47733533     -2.78674986     -3.11182076
H      -5.30396356     -3.62384760     -1.08796565
H      -4.27039237     -2.05698223      0.46971347
