18
COC(=O)c1ccccc1
C       3.41447632      0.35000329      0.33504650
O       2.00302733      0.56511583      0.36974847
C       1.27047839     -0.54548019      0.10315036
O       1.72017147     -1.65232373     -0.14968762
C      -0.18577078     -0.24191712      0.15796598
C      -1.08856589     -1.28431853     -0.09461302
C      -2.46460255     -1.05033084     -0.05512563
C      -2.94640976      0.22495448      0.23659024
C      -2.05555502      1.26775927      0.48913368
C      -0.67792570      1.03765797      0.45056897
H       3.70958575     -0.38265112      1.09277231
H       3.72871895      0.02597393     -0.66208794
H       3.90728778      1.29952922      0.56151997
H      -0.72246283     -2.28361411     -0.32332256
H      -3.15912227     -1.86337000     -0.25202397
H      -4.01813748      0.40649337      0.26718126
H      -2.43359769      2.26163618      0.71645153
H      -0.00159602      1.86488210      0.65057270
