18
O=NN1CCCCC1
O       3.32805979     -0.47922993      0.19861222
N       2.33800731     -1.13241879     -0.14864841
N       1.22330440     -0.51979471      0.18979036
C       0.97916652      0.73677766     -0.54620204
C      -0.25843036      1.46490898     -0.01576625
C      -1.49064385      0.57070914     -0.05496235
C      -1.20635211     -0.75119361      0.64582084
C       0.05734541     -1.41340616      0.09302362
H       1.83102333      1.42177641     -0.44171682
H       0.85680572      0.53938393     -1.62047733
H      -0.43884893      2.36768017     -0.61032634
H      -0.07664703      1.79262399      1.01573594
H      -2.33794365      1.07547865      0.42183020
H      -1.77299560      0.38028741     -1.09762639
H      -1.08872674     -0.57723226      1.72299085
H      -2.06127496     -1.42570868      0.52282080
H      -0.11567658     -1.72115257     -0.94808001
H       0.23382734     -2.32948964      0.67318113
