75
CC(O)C(=O)O.CCCCC(CC)COC(=O)Nc1ccc(C)c(NC(=O)OCCN(C)C)c1
C      -1.07569014     -0.86775600      0.38018987
C      -0.34751290      0.15243436     -0.47729831
O      -1.11612050      1.35637610     -0.47397004
C       1.07196633      0.40795600      0.02422508
O       1.56359093      1.51196004      0.21136637
O       1.80731564     -0.70689249      0.19075887
C       9.15136541      1.18798925     -0.50579939
C       8.63431967      1.43825241      0.90244924
C       7.14579978      1.11996285      1.07421464
C       6.23355364      2.05673788      0.27394665
C       4.71991910      1.82029795      0.47103235
C       4.23308448      1.99134074      1.92638765
C       4.56141959      3.35071044      2.52784957
C       4.30222065      0.44380492     -0.07870464
O       2.86879470      0.36674441     -0.11773968
C       2.38330991     -0.81093743     -0.59739911
O       3.08828077     -1.73459560     -0.97352650
N       1.01989974     -0.74729259     -0.56864393
C       0.08872541     -1.72311695     -0.96458152
C       0.44378820     -2.96317723     -1.48531009
C      -0.54426496     -3.87779850     -1.85545816
C      -1.90669421     -3.57132613     -1.71117085
C      -2.91933495     -4.60319118     -2.12986867
C      -2.27604667     -2.31782623     -1.18270945
N      -3.64695200     -2.02096496     -1.03595650
C      -4.23540035     -0.88719789     -0.55298579
O      -3.69831357      0.12974077     -0.14382350
O      -5.58285863     -1.07011467     -0.59483953
C      -6.35029752      0.05261551     -0.12500503
C      -7.83603010     -0.33389785     -0.16207614
N      -8.76330276      0.76928347      0.14710117
C      -8.63091051      1.22658292      1.53183437
C     -10.14419363      0.34782006     -0.10497743
C      -1.27055611     -1.41008023     -0.81837009
H      -2.10759305     -0.99521243      0.03576741
H      -0.57885855     -1.84254811      0.35993132
H      -1.12629932     -0.53389560      1.42284988
H      -0.28055140     -0.19111408     -1.51462024
H      -0.49165032      2.08700480     -0.64934376
H       2.68140326     -0.37831258      0.49014355
H      10.23655451      1.32995101     -0.53790708
H       8.70657534      1.88041904     -1.22618248
H       8.93437590      0.16473128     -0.82828255
H       9.20436310      0.81001092      1.59747692
H       8.82944373      2.47964869      1.18403504
H       6.91059164      1.20026158      2.14113475
H       6.96742554      0.07804353      0.78579957
H       6.45465309      1.95205718     -0.79525419
H       6.47366045      3.09669849      0.52551584
H       4.19545674      2.58009512     -0.12587827
H       3.14361247      1.86679193      1.95848272
H       4.64869657      1.20365400      2.56525282
H       4.09715929      3.44544297      3.51470913
H       5.63894977      3.48422125      2.65848841
H       4.18352333      4.16124585      1.89711653
H       4.68665107     -0.35934531      0.56094078
H       4.69098600      0.31690730     -1.09641164
H       0.66464129      0.12718380     -0.20647793
H       1.48160680     -3.25256302     -1.61919274
H      -0.23417098     -4.83934428     -2.26061093
H      -2.43876848     -5.50755268     -2.51843251
H      -3.55991006     -4.20659379     -2.92416339
H      -3.53424941     -4.90092213     -1.27444840
H      -4.32025769     -2.71824910     -1.31549597
H      -6.04132374      0.29410504      0.89796368
H      -6.16739182      0.91129982     -0.78185692
H      -8.00408833     -1.19031253      0.50519548
H      -8.04530749     -0.70566187     -1.17453891
H      -8.78611033      0.41528991      2.25197824
H      -9.35753104      2.01862525      1.74659070
H      -7.64518894      1.66743294      1.70902405
H     -10.27232028      0.05217530     -1.15224020
H     -10.83871644      1.17701403      0.07115032
H     -10.44204907     -0.49388814      0.53094758
H      -1.53086762     -0.43894277     -0.41029805
