26
O=C1NC(=S)NC(=O)C12CCCCC2
O      -1.38740470      0.73110735      2.41685572
C      -1.49305718      0.46273808      1.22307500
N      -2.67094631      0.71790745      0.56614665
C      -3.04462346      0.14613453     -0.61009992
S      -4.56095219      0.38834118     -1.24452036
N      -2.14122398     -0.66199229     -1.22703480
C      -0.93644566     -1.03615772     -0.68656572
O      -0.38165050     -2.05709229     -1.08210438
C      -0.35836270     -0.08231919      0.35682367
C       0.68900694     -0.78398181      1.25051471
C       2.03573303     -1.04169367      0.57208113
C       2.59371870      0.21332045     -0.08381757
C       1.59234962      0.82035576     -1.05608291
C       0.26494882      1.13662733     -0.36953202
H      -3.39543889      1.16204279      1.11733285
H      -2.48478117     -1.24535218     -1.98051047
H       0.28858444     -1.73593309      1.62257377
H       0.88712420     -0.17276212      2.14115565
H       2.75026594     -1.41231083      1.31651714
H       1.93820545     -1.83319846     -0.17870940
H       2.84895687      0.94915675      0.68859923
H       3.52226350     -0.02902943     -0.61286394
H       1.42479305      0.13238107     -1.89332349
H       2.00916386      1.74009370     -1.48244547
H       0.43410044      1.94550404      0.35492336
H      -0.42432811      1.54611260     -1.11898844
