40
CCCCN(CCCC)CCCC
C       1.44751675      3.27880609      0.49584153
C       0.05932149      2.79667055      0.88852698
C      -0.74229530      2.22739086     -0.28635635
C      -0.14946582      0.96019650     -0.92489492
N       0.05721588     -0.16560715      0.00141167
C       0.78696482     -1.27419878     -0.63815070
C       2.28885898     -1.00308133     -0.81993308
C       3.01276871     -0.74938496      0.50477730
C       4.50203660     -0.52942603      0.28962390
C      -1.17561432     -0.63877945      0.65631177
C      -2.27481494     -1.18170316     -0.26919835
C      -3.47543892     -1.67841745      0.53995844
C      -4.57297035     -2.21624026     -0.36445591
H       2.08231878      2.45283398      0.16352569
H       1.93801665      3.74946788      1.35394237
H       1.39281957      4.01797377     -0.30959408
H      -0.49640062      3.64561961      1.30478054
H       0.14361833      2.05613830      1.69142774
H      -0.82400497      2.99722159     -1.06452063
H      -1.76895040      2.03320739      0.04544550
H      -0.78797942      0.65806378     -1.76421696
H       0.80567082      1.24864179     -1.37620119
H       0.34411992     -1.52189314     -1.61117485
H       0.70355054     -2.17887380     -0.02125922
H       2.45228284     -0.16130321     -1.50172272
H       2.73505583     -1.87961154     -1.30703674
H       2.59534804      0.12990886      1.00705652
H       2.86914547     -1.60447880      1.17548308
H       4.68101231      0.33978885     -0.35133240
H       5.00133079     -0.35355088      1.24758547
H       4.96457048     -1.40392715     -0.17896509
H      -0.90289788     -1.41787261      1.38108314
H      -1.58951145      0.16613136      1.27509724
H      -1.88682214     -2.00754448     -0.87637583
H      -2.61268364     -0.39959969     -0.95817053
H      -3.15845644     -2.46949328      1.22944725
H      -3.87920847     -0.86007853      1.14742629
H      -4.93553826     -1.43986027     -1.04570623
H      -5.42007919     -2.56553624      0.23412099
H      -4.21041106     -3.05759896     -0.96360766
