43
CCOC(=O)COC(=O)c1cc(Oc2ccc(C(F)(F)F)cc2Cl)ccc1[N+](=O)[O-]
C      -6.02162169      2.27949330     -0.51451683
C      -5.00420776      2.31213930      0.61036193
O      -4.72211615      0.97894620      1.06116148
C      -3.73436008      0.32266656      0.38654686
O      -3.11469051      0.76800255     -0.57139786
C      -3.54222742     -1.06573934      0.98227792
O      -2.44346802     -1.76730176      0.39265696
C      -1.23212085     -1.32652346      0.80439411
O      -1.00771811     -0.44821120      1.61833617
C      -0.17879561     -2.00592418      0.02982535
C       0.82268323     -1.19712969     -0.52711194
C       1.84016340     -1.77389723     -1.29508285
O       2.84070122     -1.04970474     -1.90576971
C       3.33124767      0.04647854     -1.23296371
C       3.95627391     -0.10797417      0.00873430
C       4.48177561      1.00607330      0.66761021
C       4.41061585      2.28123790      0.08345764
C       4.95711127      3.49092683      0.80347382
F       5.97310240      3.18914152      1.65860337
F       4.00913509      4.11733680      1.55099953
F       5.45239138      4.43380866     -0.04469128
C       3.79435222      2.42141543     -1.17172315
C       3.26770230      1.30813496     -1.83129919
Cl      2.52991831      1.53355271     -3.37403180
C       1.84366284     -3.15089074     -1.53930131
C       0.85866461     -3.96670524     -0.98003778
C      -0.14087279     -3.38597599     -0.18721430
N      -1.10195111     -4.26704067      0.44939316
O      -1.26604385     -4.13942150      1.66966476
O      -1.65632430     -5.10979289     -0.26797160
H      -6.93105849      1.76006625     -0.19508405
H      -5.63242584      1.73589746     -1.38122854
H      -6.28588512      3.29339349     -0.82791095
H      -5.41756076      2.85781217      1.46491601
H      -4.08846845      2.83346513      0.30852760
H      -3.41409466     -0.99785938      2.06871879
H      -4.44421005     -1.65014919      0.77464078
H       0.78346423     -0.11995533     -0.37413159
H       4.03845296     -1.09111974      0.46565434
H       4.95505324      0.87502279      1.64081943
H       3.72873540      3.40480366     -1.63609565
H       2.62270409     -3.58827589     -2.16100739
H       0.88231035     -5.04022317     -1.15834446
