22
CC(C)C1(Br)C(=O)NC(=O)NC1=O
C      -1.44817727     -1.39519547      0.48330718
C      -1.33342551     -0.17723641     -0.44961867
C      -2.43475149      0.82625616     -0.07082824
C       0.11910430      0.37269412     -0.47631616
Br      0.21210193      1.92832308     -1.72648983
C       0.64827684      0.92045060      0.84090860
O      -0.05706088      1.33651913      1.75730689
N       2.01115920      0.95527591      0.98253029
C       2.88194743      0.14915127      0.31997275
O       4.01721623     -0.04851313      0.73825777
N       2.40889354     -0.49166284     -0.78113007
C       1.08785029     -0.61465040     -1.12198420
O       0.75106106     -1.47830773     -1.93126856
H      -2.45169680     -1.83116922      0.42452930
H      -0.73780318     -2.18166512      0.21145446
H      -1.26639457     -1.12155928      1.52762250
H      -1.58384637     -0.53088636     -1.46000802
H      -3.41848256      0.34772783     -0.14627769
H      -2.45821503      1.69064531     -0.73898235
H      -2.33621312      1.18777580      0.95577198
H       2.34873198      1.31549991      1.86562887
H       3.03972396     -1.15947319     -1.20438681
