44
CC1(C)SC2C(NC(=O)C(N)c3ccc(O)cc3)C(=O)N2C1C(=O)O
C      -5.33581033      0.86186110     -1.03794046
C      -4.18283104      0.91600504     -0.03324187
C      -4.41737856      2.03412301      0.99142204
S      -2.61973205      1.29751267     -0.95674495
C      -1.59143080      0.56151260      0.36859332
C      -0.61593102     -0.55478616     -0.08054877
N       0.70542766     -0.60904198      0.58754496
C       1.57767779      0.46002802      0.61322392
O       1.26086116      1.57805731      0.21739990
C       2.98280145      0.11159363      1.16580863
N       2.91541097     -1.13332231      1.97989559
C       3.99425543     -0.01209883      0.04238764
C       4.08540252     -1.17257589     -0.74694678
C       5.01327249     -1.25967883     -1.78819334
C       5.85028717     -0.18109860     -2.04964405
O       6.76951114     -0.22149837     -3.05540728
C       5.77170265      0.97959747     -1.29097230
C       4.84475383      1.06665702     -0.25052935
C      -1.67435188     -1.51165126      0.52443878
O      -1.86474553     -2.70232603      0.59822994
N      -2.45874017     -0.48125229      0.97357149
C      -3.88182020     -0.46204743      0.58727196
C      -4.78752334     -0.81820552      1.76702886
O      -6.00792138     -0.75145530      1.73790770
O      -4.11729971     -1.24488770      2.86427287
H      -5.47288390      1.82368277     -1.54609789
H      -5.17348087      0.09632678     -1.80581186
H      -6.28113041      0.62458752     -0.53795450
H      -3.62744883      2.07765756      1.74941512
H      -5.36575479      1.89114685      1.52096012
H      -4.47297523      3.01655918      0.50721996
H      -1.23184366      1.26619464      1.12402990
H      -0.50502135     -0.68403103     -1.16317575
H       1.11505359     -1.49279454      0.89182234
H       3.27433346      0.92116354      1.84639530
H       2.43568523     -0.90798659      2.85293995
H       3.87261509     -1.36211641      2.25830080
H       3.43278258     -2.02160839     -0.55272782
H       5.06496421     -2.16907397     -2.37859588
H       6.69407155     -1.07633293     -3.51044049
H       6.42586575      1.81822078     -1.51285265
H       4.78709073      1.98941706      0.32352461
H      -4.03174077     -1.25970180     -0.15475809
H      -3.15603064     -1.30233236      2.68048679
