37
CCCCCCC1(CC)C(=O)NC(=O)NC1=O
C       5.45339693     -0.69673849      1.41174875
C       4.44199488      0.02906523      0.53896192
C       3.00994683     -0.37906751      0.88358024
C       1.99569151      0.35330739      0.00337740
C       0.56072216     -0.05566258      0.34827355
C      -0.45278312      0.68609716     -0.54086273
C      -1.93447895      0.31651445     -0.27654982
C      -2.89160174      1.18535868     -1.14867912
C      -2.63886920      1.13929635     -2.65176093
C      -2.31807780      0.62383177      1.16649953
O      -1.78605066      1.49843413      1.84601419
N      -3.37040623     -0.08963569      1.67163570
C      -3.74514314     -1.32031952      1.23164473
O      -4.38870005     -2.08531974      1.94221298
N      -3.30047248     -1.69799563      0.00408348
C      -2.20337868     -1.14783986     -0.59800477
O      -1.53109478     -1.81470657     -1.38047292
H       6.47049701     -0.39001072      1.14843315
H       5.29314657     -0.46882265      2.47038496
H       5.38022206     -1.78080990      1.27843902
H       4.56326211      1.11047535      0.67143159
H       4.64986794     -0.19428191     -0.51394215
H       2.89511839     -1.46208436      0.75338882
H       2.80859155     -0.15742176      1.93875215
H       2.19764949      0.13116442     -1.05152472
H       2.11027654      1.43621115      0.13430698
H       0.37369504      0.16080991      1.40534103
H       0.45618386     -1.13863732      0.22034445
H      -0.31584679      1.76671418     -0.40163764
H      -0.19582908      0.47115287     -1.58551400
H      -2.82703844      2.23327382     -0.82554104
H      -3.93407728      0.88574030     -0.97599564
H      -2.68478683      0.11745433     -3.03862397
H      -3.40297822      1.72572891     -3.17302468
H      -1.66750310      1.56973239     -2.91081407
H      -3.60817896      0.11132009      2.63393832
H      -3.46296733     -2.67232868     -0.21451174
