47
COc1ccc2c(c1)N(CC(C)CN(C)C)c1ccccc1S2
C      -2.75169019      4.60372678      0.87258048
O      -1.79423455      3.56277183      1.02089516
C      -2.18352804      2.30588160      0.64556216
C      -3.40839819      1.96269070      0.08907189
C      -3.66685095      0.63145112     -0.23871709
C      -2.70473770     -0.36843443     -0.02007594
C      -1.44764115     -0.04373592      0.52209810
C      -1.22475792      1.30741330      0.86062744
N      -0.45978626     -1.03804606      0.75840147
C       0.95697587     -0.63523995      0.54193920
C       1.25669919     -0.22541353     -0.92209260
C       1.04639946     -1.39733639     -1.89080008
C       2.71458364      0.27555492     -1.05924114
N       3.05231950      1.41920914     -0.19288307
C       2.37577617      2.64737620     -0.62215807
C       4.50231841      1.63749761     -0.19106335
C      -0.73214269     -2.42704687      0.85948737
C       0.13750913     -3.29654530      1.54921284
C      -0.12123905     -4.66630480      1.66585787
C      -1.27173617     -5.20408924      1.10808693
C      -2.16856306     -4.36632099      0.45187025
C      -1.91541245     -2.98776131      0.33783999
S      -3.14101251     -2.02099717     -0.52190407
H      -3.64366325      4.41024893      1.47766300
H      -2.29713075      5.53005154      1.23675053
H      -3.01201278      4.75224037     -0.18059298
H      -4.18335124      2.69693223     -0.10070040
H      -4.63154221      0.37588941     -0.67234666
H      -0.29288490      1.61227461      1.32805533
H       1.66145128     -1.43198665      0.80190757
H       1.21078462      0.17117668      1.23822417
H       0.57849400      0.57362153     -1.23969811
H       1.33295619     -1.11436428     -2.90956268
H      -0.00331741     -1.70161162     -1.92656043
H       1.64600130     -2.26676313     -1.60083902
H       2.92276020      0.52461750     -2.10882004
H       3.37460169     -0.56579373     -0.80584935
H       1.28922105      2.55357345     -0.54394618
H       2.65357040      3.48440475      0.02873354
H       2.62702138      2.91817320     -1.65400172
H       4.88714372      1.86843176     -1.19103791
H       5.02484303      0.75061773      0.18462764
H       4.76742364      2.46157382      0.48082964
H       1.02071066     -2.91483691      2.05355536
H       0.57285024     -5.30449630      2.20656872
H      -1.48063105     -6.26661094      1.19615934
H      -3.07615032     -4.79366520      0.03101501
