23
O=C1Cc2cc(CCCl)c(Cl)cc2N1
O       4.74503904      0.33674576      0.19304873
C       3.52568305      0.32880168      0.20163981
C       2.61737568     -0.89527279      0.36837869
C       1.24955549     -0.28240676      0.30047875
C       0.00659156     -0.88138352      0.38787669
C      -1.14346090     -0.07254269      0.28743463
C      -2.50306002     -0.73809607      0.36899658
C      -3.16249082     -0.97003804     -0.98967175
Cl     -2.34132661     -2.25562974     -1.91413098
C      -0.99225432      1.32623138      0.09884090
Cl     -2.36354180      2.37345754     -0.03013654
C       0.27267372      1.91933696      0.01347525
C       1.36642567      1.09114524      0.11725476
N       2.70538076      1.44253070      0.06136521
H       2.79844484     -1.35804687      1.34154540
H       2.78318763     -1.59165332     -0.45720425
H      -0.07445308     -1.95721668      0.52232584
H      -2.41867058     -1.68962210      0.91069753
H      -3.16235258     -0.12225346      0.99288508
H      -3.16808140     -0.07019165     -1.61071564
H      -4.19747224     -1.29607448     -0.84951994
H       0.38595805      2.98764086     -0.12963676
H       3.07084887      2.37453805     -0.06570157
