12
[O-][n+]1ccccc1
O       2.58986033      0.51557402     -0.02673142
N       1.34606948      0.26796754     -0.01389393
C       0.88299659     -1.03650815     -0.01199645
C      -0.48125296     -1.32408746      0.00204586
C      -1.39928316     -0.27856098      0.01444295
C      -0.95154296      1.03885490      0.01274264
C       0.41882987      1.29566804     -0.00144122
H       1.67285547     -1.77154337     -0.02226942
H      -0.81963871     -2.35656884      0.00324286
H      -2.46648726     -0.49101363      0.02545875
H      -1.65945700      1.86304521      0.02234607
H       0.86705032      2.27717273     -0.00394670
