50
C[C@]12CC[C@H]3[C@@H](CCC4CCCC[C@@]43C)[C@@H]1CCC2=O
C      -3.18373173      1.46367551     -0.21092244
C      -2.92373145      0.00389546      0.20482555
C      -2.34796256     -0.07640989      1.61494788
C      -0.90551077      0.46262304      1.65395363
C       0.03060086     -0.18081381      0.59435161
C      -0.60914510     -0.18720821     -0.83457007
C       0.27481767     -0.94048448     -1.83754987
C       1.71210045     -0.42429552     -1.85019956
C       2.31905790     -0.44944500     -0.44284453
C       3.80745880     -0.07455867     -0.46802311
C       4.42931966     -0.20803209      0.91946680
C       3.65754556      0.56754169      1.98029815
C       2.16229480      0.23642890      1.97351870
C       1.49405765      0.39819825      0.57870959
C       1.48545374      1.90455134      0.21219943
C      -2.00393837     -0.81037535     -0.72826641
C      -2.84070117     -1.02320600     -1.98498231
C      -4.21325726     -1.41198499     -1.41572535
C      -4.21519035     -0.75352607     -0.04622856
O      -5.15432363     -0.80925395      0.73651254
H      -3.87222904      1.94149968      0.49672129
H      -3.65463952      1.53999284     -1.19687393
H      -2.27294222      2.06760720     -0.23562524
H      -2.97081617      0.48605672      2.32116987
H      -2.35565627     -1.11549855      1.96934250
H      -0.51011079      0.28059606      2.65945323
H      -0.93322533      1.54909018      1.52547499
H       0.12055335     -1.23688155      0.89603186
H      -0.70930806      0.84007016     -1.19964502
H       0.28156331     -2.01091883     -1.59472644
H      -0.14115921     -0.84989584     -2.84776779
H       2.30530927     -1.05657067     -2.52223443
H       1.74354145      0.58741324     -2.27030014
H       2.27679724     -1.49762017     -0.10677531
H       4.34474351     -0.73628618     -1.15858640
H       3.94896121      0.94366110     -0.84684837
H       5.46910378      0.13711857      0.89269531
H       4.45676946     -1.26844805      1.20021091
H       4.07294131      0.33957313      2.96905608
H       3.80441047      1.64279737      1.82785051
H       2.03526090     -0.79760600      2.32051212
H       1.66868394      0.87602647      2.71460190
H       2.49390905      2.31406250      0.10730165
H       0.99162583      2.49870817      0.98815479
H       0.96986435      2.10751713     -0.72950065
H      -1.86665389     -1.81634101     -0.29443477
H      -2.44347361     -1.81605896     -2.62637566
H      -2.90752049     -0.11009159     -2.58625479
H      -5.02814562     -1.03171595     -2.03531576
H      -4.29337291     -2.49517733     -1.28678397
