49
N#Cc1ccc2c(c1)N(CCCN1CCC(O)CC1)c1ccccc1S2
N       2.29585793      5.46628388      1.32005686
C       2.75942170      4.43473383      1.05969395
C       3.33099185      3.16120118      0.73202551
C       4.68483527      2.93172783      0.93683023
C       5.21676535      1.68743871      0.61630417
C       4.40568204      0.66254651      0.08892951
C       3.02880389      0.86656830     -0.13911905
C       2.52176257      2.14179611      0.20449448
N       2.19606976     -0.16598237     -0.66099538
C       0.87269946      0.23031724     -1.19834978
C      -0.22864684      0.13778563     -0.13153686
C      -1.59168915      0.49123865     -0.73927733
N      -2.66323661      0.59236713      0.26752130
C      -3.86174590      1.19864343     -0.34583103
C      -4.97122117      1.40850045      0.68415534
C      -5.33577992      0.10754164      1.38667604
O      -6.01723738     -0.74650841      0.46698362
C      -4.08939207     -0.58905392      1.91874945
C      -3.00778685     -0.71915511      0.84298948
C       2.57418244     -1.53316036     -0.81614536
C       1.63459336     -2.54671219     -1.11668395
C       1.99378311     -3.89293067     -1.25903252
C       3.31384377     -4.27712007     -1.10101020
C       4.26630806     -3.31180875     -0.79812430
C       3.90885728     -1.95619448     -0.65153055
S       5.25228059     -0.85120337     -0.29201516
H       5.33080319      3.70665495      1.34367197
H       6.27987273      1.51567843      0.77908531
H       1.46727333      2.37491175      0.08703845
H       0.60716243     -0.37611759     -2.07421703
H       0.90857504      1.24266136     -1.62178719
H      -0.24897722     -0.87006701      0.29395128
H      -0.01145314      0.81381471      0.70298107
H      -1.85582524     -0.23542010     -1.51875860
H      -1.48410665      1.46479335     -1.23551160
H      -3.60602569      2.18060224     -0.76300187
H      -4.22995622      0.58157284     -1.17613322
H      -4.64201509      2.14606183      1.42685584
H      -5.85088304      1.82135897      0.17639962
H      -6.03037379      0.31733640      2.20764821
H      -6.33801403     -1.51520828      0.96967527
H      -4.34409409     -1.59048605      2.28515006
H      -3.68822794     -0.02033628      2.76715204
H      -3.33904228     -1.41462473      0.06076326
H      -2.13284717     -1.16832147      1.32431149
H       0.57864197     -2.32783252     -1.23447753
H       1.23376755     -4.63557898     -1.48869727
H       3.60322688     -5.31852608     -1.20935850
H       5.30251592     -3.62178859     -0.67590616
