10
O.[Mo].[NH4+].[O-2]
O      -0.00126237      0.36745617     -0.00000000
Mo      0.00000000      0.00000000      0.00000000
N       0.00138394     -0.01095386     -0.00475202
O       0.00000000      0.00000000      0.00000000
H      -0.82213003     -0.18416645     -0.00000000
H       0.82339241     -0.18328972      0.00000000
H      -0.77265578     -0.43302011     -0.56207462
H       0.33247233      0.87698226     -0.43202260
H      -0.37261302      0.21829020      0.93413087
H       0.81141254     -0.65129848      0.06471837
