31
CCCOC(=O)c1ccc(NC(C)=O)cc1
C       5.89385494     -0.92149443     -0.96871498
C       4.38116180     -1.01358528     -0.88211697
C       3.77444293      0.22028830     -0.22567491
O       2.35164328      0.04682374     -0.18671051
C       1.67944534      1.08026990      0.37745264
O       2.18068591      2.09710296      0.83116135
C       0.21463221      0.81800354      0.37681935
C      -0.34249794     -0.35303754     -0.14806206
C      -1.72990935     -0.55129957     -0.12413597
C      -2.57766353      0.41371995      0.42290959
N      -3.98069597      0.28932632      0.48342474
C      -4.75196808     -0.77145451      0.04320724
C      -6.22421136     -0.54424655      0.28192328
O      -4.35327466     -1.81314817     -0.46466061
C      -2.01699014      1.58534233      0.94699595
C      -0.63252514      1.78728242      0.92509944
H       6.20065623     -0.05415210     -1.56191063
H       6.30211705     -1.81917233     -1.44341118
H       6.33896843     -0.83164223      0.02732270
H       3.95769184     -1.14175881     -1.88554193
H       4.09415535     -1.90885571     -0.31755080
H       4.01780018      1.11616467     -0.80893089
H       4.15744763      0.33119302      0.79560505
H       0.28564131     -1.12745011     -0.58221174
H      -2.11383695     -1.47612475     -0.54457016
H      -4.47578414      1.06476376      0.90566800
H      -6.47215378     -0.82575099      1.30863802
H      -6.49126545      0.50280835      0.11217309
H      -6.80378747     -1.15824708     -0.41349699
H      -2.64473140      2.35975926      1.38076370
H      -0.21904907      2.70562115      1.33853617
