28
O=C(O)CSC(CC(=O)O)c1ccccc1
O       2.82680059     -0.35441956      1.17370134
C       2.81541123     -0.85685116      0.06272512
O       3.46276433     -2.02608539     -0.14438267
C       2.14807937     -0.36224859     -1.19860926
S       1.36862708      1.27874087     -1.03179832
C       0.07378030      0.93874950      0.24532098
C      -0.77582788      2.19320126      0.48451015
C      -0.01582438      3.27077167      1.20008693
O       0.18070184      4.40497728      0.79647992
O       0.40532917      2.89884159      2.42349075
C      -0.81115696     -0.23690297     -0.14110365
C      -1.60837308     -0.21815031     -1.29772174
C      -2.41010362     -1.31238411     -1.62707924
C      -2.42912753     -2.43702918     -0.80540994
C      -1.64773601     -2.46944837      0.34721516
C      -0.84481454     -1.37692328      0.67891913
H       3.85543137     -2.23721113      0.72901581
H       2.92126523     -0.26467862     -1.96749065
H       1.41559112     -1.09724995     -1.54131529
H       0.60104651      0.69848145      1.17324688
H      -1.65394474      1.96194605      1.10184723
H      -1.16431802      2.60830380     -0.45401469
H       0.87731303      3.68907179      2.76200479
H      -1.60549113      0.64764009     -1.95744403
H      -3.02014746     -1.28635569     -2.52654372
H      -3.05493970     -3.28766675     -1.06267922
H      -1.66553705     -3.34558198      0.99050786
H      -0.24479905     -1.42153830      1.58652036
