32
CNC(=O)Oc1cc(C)cc(C(C)C)c1
C       5.17084344     -0.69794799      0.38638277
N       4.07338176     -0.36964177     -0.48123850
C       2.81871163     -0.11574084      0.00220377
O       2.48934695     -0.24141653      1.17339192
O       2.01178360      0.31231598     -1.04013185
C       0.68541272      0.58948824     -0.68829966
C       0.24733960      1.90740299     -0.79008602
C      -1.08656253      2.21424319     -0.50693121
C      -1.56805109      3.63371402     -0.56247119
C      -1.95713428      1.18491145     -0.11365194
C      -1.52217261     -0.14999148     -0.02863974
C      -2.49615031     -1.23591023      0.39283620
C      -2.06115195     -1.90447299      1.69937796
C      -2.69262782     -2.27580271     -0.71309557
C      -0.18526175     -0.44047786     -0.33300795
H       5.57183209      0.22794403      0.80697113
H       4.83619287     -1.35022028      1.19742512
H       5.94195892     -1.19983747     -0.20244284
H       4.24353183     -0.10057206     -1.43999014
H       0.94421992      2.68660952     -1.08441728
H      -2.62304177      3.67658547     -0.85288137
H      -1.00414992      4.20963425     -1.30379644
H      -1.45023269      4.10720433      0.41703137
H      -2.99027911      1.42925550      0.12876041
H      -3.47528353     -0.77443685      0.57781028
H      -2.81577939     -2.62517570      2.03258751
H      -1.93223820     -1.16208955      2.49491956
H      -1.11356411     -2.44291453      1.58885063
H      -1.77160192     -2.83051669     -0.92285316
H      -3.45988903     -3.00282551     -0.42557022
H      -3.01502573     -1.79928536     -1.64562490
H       0.18564240     -1.46003259     -0.28061953
