27
Cc1nnc(NS(=O)(=O)c2ccc(N)cc2)s1
C      -5.77951989      0.85009615      0.36858103
C      -4.51791805      0.42735499     -0.28837727
N      -4.44235106     -0.28284287     -1.39571077
N      -3.13382238     -0.52736682     -1.76592207
C      -2.28467605     -0.02594988     -0.90188246
N      -0.85504121     -0.12246572     -1.15123079
S      -0.16019386     -1.34214817     -0.20747055
O      -0.03082121     -2.50163712     -1.06328439
O      -0.78583987     -1.41613342      1.09419842
C       1.46468189     -0.66439651      0.03834126
C       1.63847822      0.36881005      0.96172402
C       2.91392834      0.90248097      1.16218826
C       4.02216048      0.38083453      0.48658223
N       5.27097393      1.00054599      0.60198328
C       3.82118857     -0.62218533     -0.46789117
C       2.55130080     -1.16615576     -0.67923030
S      -2.99095000      0.86773035      0.36959552
H      -5.85188912      1.94158353      0.40719013
H      -6.64502309      0.47473561     -0.18673637
H      -5.83829857      0.45756868      1.38865919
H      -0.75185742     -0.41481153     -2.12519413
H       0.79262804      0.76823451      1.51637571
H       3.03753916      1.72981317      1.85668004
H       6.05306311      0.40410232      0.34943625
H       5.41887508      1.46978387      1.49026319
H       4.65850247     -0.99291767     -1.05429105
H       2.42488170     -1.96466395     -1.40652631
