37
CCN1C(=O)C(C#N)=C(C)/C(=N\Nc2ccc(Cl)cc2[N+](=O)[O-])C1=O
C       5.22983556      0.03846573      1.33978916
C       4.24490615      1.01630710      0.71374136
N       3.09681463      0.33622943      0.12556605
C       3.22855722     -0.21564808     -1.13774102
O       4.18633437      0.01358620     -1.87160597
C       2.17838556     -1.19160162     -1.55910679
C       2.50228248     -2.04328322     -2.65545351
N       2.71398195     -2.77180267     -3.53329224
C       0.98023839     -1.25899293     -0.94804686
C      -0.09406016     -2.26052626     -1.25885117
C       0.74777099     -0.29417839      0.16299042
N      -0.34902471      0.27820434      0.54974693
N      -1.48273924      0.06946803     -0.16989184
C      -2.69362180      0.59827534      0.35747278
C      -2.79800250      0.89408062      1.72958977
C      -3.99877799      1.33863499      2.29402465
C      -5.13195411      1.47333798      1.49893163
Cl     -6.60561847      2.01894103      2.19667604
C      -5.08225583      1.16127494      0.14503147
C      -3.87126915      0.71663356     -0.41487717
N      -3.86443116      0.38656152     -1.84215381
O      -4.94402603      0.08867613     -2.37063444
O      -2.77643938      0.42722486     -2.44048690
C       2.00266728      0.09235844      0.93499877
O       1.98147861      0.15585197      2.15488484
H       4.75441136     -0.54926733      2.13165252
H       6.07542714      0.57902812      1.77600501
H       5.62019347     -0.66173042      0.59413567
H       4.75363332      1.60135109     -0.06067196
H       3.89336038      1.71884189      1.47826636
H      -0.63908080     -2.54388772     -0.35197476
H       0.31476163     -3.19045910     -1.66721011
H      -0.80327370     -1.85804464     -1.98804717
H      -1.42293578      0.22665927     -1.18673530
H      -1.93088372      0.77863262      2.37918543
H      -4.03716710      1.56890064      3.35634332
H      -5.97947886      1.26189653     -0.46225115
