60
CCCCC(CC)CNC(=O)c1ccc(N/N=C2\C(=O)N(C)C(=O)C(C#N)=C2C)cc1
C      -9.24308588      0.47248921      1.21828287
C      -8.25149382      1.23826090      0.35639371
C      -6.90760000      0.51167198      0.26806329
C      -5.91512428      1.29147628     -0.60136061
C      -4.51751383      0.64681209     -0.74147945
C      -4.53951361     -0.76381347     -1.37030354
C      -5.19164448     -0.81271610     -2.74489370
C      -3.79039742      0.61963270      0.61596439
N      -2.36697196      0.37942554      0.47855551
C      -1.58929372      0.08331556      1.57797653
O      -2.04206856     -0.03696517      2.71109518
C      -0.13581859     -0.12321833      1.32972684
C       0.54431010      0.51857643      0.28992542
C       1.91428915      0.29451700      0.10688756
C       2.63323983     -0.54492255      0.96836357
N       4.00158091     -0.83114869      0.77559140
N       4.72126661     -0.01221815     -0.03826764
C       6.02090364     -0.12602050     -0.03306287
C       6.77264973     -1.12777402      0.83261221
O       6.27963506     -1.50258004      1.89149909
N       8.00614302     -1.52437243      0.34803927
C       8.67355616     -2.61125020      1.04159618
C       8.76437212     -0.76605188     -0.52676802
O       9.93740917     -1.03123594     -0.78332175
C       8.12854385      0.44078958     -1.12669536
C       8.95649509      1.24115576     -1.96818511
N       9.58361914      1.93009792     -2.66005110
C       6.83889130      0.75449061     -0.91269875
C       6.10957544      1.93515696     -1.49761419
C       1.93588540     -1.19628795      1.99460961
C       0.56787933     -0.97599403      2.18636364
H      -8.86642574      0.35436499      2.23941759
H      -9.43490834     -0.52299477      0.80544210
H     -10.19574872      1.00915931      1.26774109
H      -8.67226130      1.36684828     -0.64777214
H      -8.10716312      2.23964946      0.77870106
H      -6.50315504      0.38325116      1.27836339
H      -7.06975899     -0.48872812     -0.14827310
H      -6.34697984      1.43853313     -1.59880692
H      -5.79282897      2.29909919     -0.18206433
H      -3.94197454      1.29700405     -1.41609495
H      -3.51005043     -1.12678199     -1.47750363
H      -5.04503877     -1.47383019     -0.70558095
H      -4.73370273     -0.08619936     -3.42330419
H      -5.06858643     -1.80902507     -3.18226664
H      -6.26448327     -0.60947721     -2.68887471
H      -3.89340948      1.58448222      1.12671208
H      -4.20991209     -0.14880640      1.27563471
H      -1.95501394      0.39780249     -0.44331645
H       0.03903993      1.21384681     -0.37274182
H       2.42602198      0.79146833     -0.71404185
H       4.45611735     -1.21172183      1.61671286
H       9.34410234     -3.14587114      0.36202841
H       9.26280423     -2.18964188      1.86251952
H       7.94522894     -3.31788102      1.45033913
H       5.32194932      1.59787388     -2.18026245
H       6.76027727      2.61001729     -2.06055650
H       5.64961259      2.53080145     -0.70119869
H       2.45485836     -1.87835120      2.66363883
H       0.05167051     -1.47619096      3.00407778
