18
O=[N+]([O-])c1cc(C(F)(F)F)ccc1O
O      -1.80851428     -2.54079573     -1.02297357
N      -2.15669808     -1.42182886     -0.62289824
O      -3.33533280     -1.04231080     -0.53169553
C      -1.10994713     -0.47525318     -0.22772890
C       0.23622010     -0.87065800     -0.32950869
C       1.26616090      0.01334622      0.03785384
C       2.71178295     -0.41932183     -0.05152111
F       3.08670801     -1.17679807      1.01410472
F       2.96566704     -1.17115757     -1.15736409
F       3.58405604      0.62423199     -0.10018152
C       0.92538364      1.28654551      0.51900841
C      -0.41305739      1.67660355      0.61843671
C      -1.43390165      0.80225987      0.24628537
O      -2.70134030      1.29670705      0.38820815
H       0.49862624     -1.86447818     -0.69481392
H       1.70439000      1.98750196      0.81973885
H      -0.66141538      2.66915308      0.99025820
H      -3.35878792      0.62625297      0.10479133
