59
COc1ccccc1N1CCN(CCCNc2cc(=O)n(C)c(=O)n2C)CC1.Cl
C      -6.20918036     -3.11144688      1.49721416
O      -5.36998593     -2.11628032      0.95679138
C      -5.81065635     -0.81635464      0.71889614
C      -7.11112941     -0.44616517      1.00745324
C      -7.49197781      0.85622374      0.75080523
C      -6.61771284      1.78633067      0.21954778
C      -5.32504851      1.41580091     -0.06693317
C      -4.94437006      0.11418415      0.18965801
N      -3.60083490     -0.21227667     -0.12348451
C      -2.71692552     -0.67796944      0.91752613
C      -1.39272877      0.07630833      0.74093444
N      -0.97321243     -0.16012492     -0.60813644
C       0.43442152     -0.06221069     -0.82251112
C       0.97716139      1.33483843     -0.67499889
C       2.46626307      1.33906118     -0.92689931
N       3.18467670      0.49854454     -0.01618763
C       4.61602741      0.37412633     -0.10940329
C       5.31542904      1.07152677     -1.09018114
C       6.68546325      0.95340967     -1.17829721
O       7.33176629      1.59160623     -2.07596787
N       7.36736138      0.17482168     -0.33333684
C       8.81431888      0.05108269     -0.43011256
C       6.67304045     -0.48809750      0.60431762
O       7.33990734     -1.22197491      1.39625067
N       5.32269804     -0.39854210      0.72504202
C       4.64740510     -1.14848248      1.76962746
C      -1.77186535      0.57524472     -1.54601325
C      -3.17245443     -0.05578332     -1.50181474
Cl      0.68549985      0.00000000      0.00000000
H      -5.57735102     -3.94327087      1.89444231
H      -6.84450607     -3.53810411      0.71415752
H      -6.81550679     -2.72707323      2.34759229
H      -7.78902818     -1.19144219      1.42648845
H      -8.50420223      1.15219943      0.97386016
H      -6.94544735      2.81901648      0.02422559
H      -4.63077210      2.14704724     -0.48612352
H      -3.15537474     -0.52080317      1.90436247
H      -2.45809004     -1.75263004      0.71856271
H      -1.64846765      1.15157437      0.88974445
H      -0.65974480     -0.20722382      1.50853525
H       0.93628493     -0.73061748     -0.09355764
H       0.66439527     -0.46097424     -1.83053801
H       0.85216447      1.64863602      0.40383733
H       0.44444189      2.05919895     -1.30013670
H       2.78694215      2.40388913     -0.86528645
H       2.61898810      1.02033450     -1.98422598
H       2.69102775     -0.03339922      0.72347152
H       4.74628560      1.69293687     -1.75935441
H       9.00258411     -0.60927638     -1.31497473
H       9.23339101     -0.42489506      0.45769250
H       9.22310439      1.04143785     -0.67849711
H       5.36971388     -1.49917017      2.54363508
H       3.94118269     -0.46823464      2.29368688
H       4.09135936     -1.98602433      1.31359591
H      -1.39181526      0.54593077     -2.56354847
H      -1.91195009      1.60607240     -1.13883827
H      -3.85296550      0.56233988     -2.08501183
H      -3.08450098     -1.05487595     -1.98246142
H      -0.68549985      0.00000000      0.00000000
