23
CC(C)C(CC(=O)O)C(=O)O
C      -1.57722983      1.00361807      1.18599939
C      -1.10469043     -0.34416905      0.62821255
C      -2.30353852     -1.03145818     -0.04590621
C       0.08560016     -0.20579416     -0.36662506
C       1.28736529      0.56263741      0.21156147
C       2.21420598      1.00698314     -0.88838190
O       2.05717498      0.80147537     -2.08315896
O       3.27949934      1.68023781     -0.42470784
C       0.58643529     -1.58860738     -0.77851582
O       0.55261066     -2.57702286     -0.06076382
O       1.11397646     -1.63037889     -2.02198934
H      -1.77108506      1.72024071      0.38091247
H      -0.83867612      1.43718121      1.86638254
H      -2.50141067      0.88600480      1.76278826
H      -0.79736266     -0.96694397      1.47849672
H      -2.65891541     -0.45174260     -0.90481482
H      -2.05177392     -2.03646358     -0.39708660
H      -3.13674237     -1.13554648      0.65780861
H      -0.29995113      0.29930566     -1.26261562
H       1.85031209     -0.06250605      0.91358750
H       0.96747579      1.47512405      0.72090131
H       3.81747640      1.90521572     -1.21288207
H       1.22924370     -0.74739077     -2.44573741
