29
Nc1cccc(Nc2ccccc2C(=O)O)c1
N       4.68251107      0.46012327      1.24134806
C       3.59902388      0.08537990      0.43587732
C       3.80231009     -0.24847733     -0.90265524
C       2.71699894     -0.50677683     -1.73925935
C       1.41357229     -0.39005416     -1.25211640
C       1.17672423     -0.00392956      0.06958896
N      -0.11252049      0.19677427      0.60378422
C      -1.37675466      0.33549979     -0.01341640
C      -1.50213197      1.00632494     -1.24194489
C      -2.73733907      1.13350214     -1.88269277
C      -3.88021483      0.59373189     -1.30448773
C      -3.79002840     -0.06431916     -0.07887209
C      -2.55013489     -0.19396488      0.57334443
C      -2.47831873     -0.88003955      1.89176032
O      -1.50398629     -0.92279344      2.62365963
O      -3.62813815     -1.48651305      2.24076154
C       2.28665272      0.25639166      0.89179677
H       4.49572555      0.38342926      2.23631902
H       5.55842506      0.02015545      0.97813405
H       4.80914559     -0.31258724     -1.30563725
H       2.88510386     -0.79120102     -2.77433788
H       0.58911937     -0.62163967     -1.91938165
H      -0.17529112     -0.11460602      1.57850850
H      -0.63022852      1.46755984     -1.70083649
H      -2.80237793      1.66231739     -2.83049639
H      -4.84234283      0.69282930     -1.80086410
H      -4.69625487     -0.46995680      0.36502187
H      -3.42856292     -1.89368338      3.10968036
H       2.11931301      0.60652300      1.90741357
