40
O=C(O)CN1C(=O)N(c2ccccc2)C(=O)C1Cc1ccccc1
O      -0.55349548      2.98179416      0.85949498
C      -0.98896249      2.86173761     -0.27541661
O      -1.60129660      3.89899121     -0.88319514
C      -0.97144317      1.60883422     -1.13949189
N      -0.09724539      0.57011888     -0.59822864
C       1.27685891      0.61972270     -0.81592131
O       1.77024308      1.35520004     -1.66025968
N       1.90439458     -0.21856093      0.08402688
C       3.31125842     -0.48117516      0.12528365
C       3.90727384     -1.16451748      1.19913210
C       5.28384761     -1.42597169      1.23495357
C       6.10258383     -1.01150606      0.19313768
C       5.54289274     -0.33692409     -0.88336739
C       4.16610833     -0.07730728     -0.91532054
C       0.96672207     -0.71673310      0.96583555
O       1.12673826     -1.47526170      1.91679529
C      -0.41415820     -0.17794314      0.59844428
C      -1.38107083     -1.34970806      0.39169008
C      -2.82348177     -0.93825103      0.21193230
C      -3.51187563     -0.27462591      1.23763155
C      -4.84231608      0.10941576      1.06369748
C      -5.50029774     -0.17264431     -0.13148552
C      -4.83071957     -0.84413003     -1.15214553
C      -3.50010019     -1.22909837     -0.98104203
H      -1.53594278      4.63084661     -0.23407214
H      -1.98675018      1.22307397     -1.23097448
H      -0.60509060      1.88714841     -2.13329736
H       3.33314750     -1.50471823      2.05522969
H       5.70966318     -1.95318851      2.08533465
H       7.16987162     -1.21295292      0.22004976
H       6.17183612     -0.00936556     -1.70766254
H       3.79476242      0.43803755     -1.79615934
H      -0.72670234      0.50375750      1.39537984
H      -1.05376749     -1.95017152     -0.46784095
H      -1.34386285     -2.02832567      1.25432341
H      -3.02171624     -0.05630206      2.18432488
H      -5.36817686      0.62344674      1.86442687
H      -6.53758966      0.12363791     -0.26446836
H      -5.34659712     -1.07175627     -2.08158981
H      -2.99554326     -1.75462420     -1.78918523
