9
O=C(O)CO
O       0.14794059      1.55265798      0.52041043
C       0.48595031      0.42221389      0.20364977
O       1.76369176      0.01783974      0.32907113
C      -0.43758861     -0.66334925     -0.31894808
O      -1.74069089     -0.17355809     -0.61148473
H       2.23628523      0.80594061      0.67144435
H      -0.02088297     -1.07998587     -1.23968393
H      -0.52697790     -1.44603299      0.43919001
H      -1.90772752      0.56427398      0.00635104
