41
CCCCCCCCCCCC(=O)OC
C       6.53031885     -0.71537966      0.81769492
C       6.22470333      0.56769997      0.06051014
C       4.81546269      1.10676957      0.31512619
C       3.71057562      0.18910930     -0.21309198
C       2.32953773      0.82250371     -0.02916005
C       1.22271885     -0.09405886     -0.55325682
C      -0.15742711      0.53923907     -0.36977275
C      -1.26423869     -0.37739734     -0.89361324
C      -2.64476044      0.25612818     -0.70987673
C      -3.75160675     -0.66333465     -1.23398040
C      -5.13734664     -0.03653579     -1.11142191
C      -5.57922323      0.11142776      0.32268904
O      -5.67681603      1.18391397      0.90328946
O      -5.85132456     -1.10650226      0.86673188
C      -6.27122006     -1.05089307      2.23037342
H       7.57853898     -0.99602848      0.67263866
H       6.35926574     -0.58865699      1.89133599
H       5.91381704     -1.54683788      0.46400038
H       6.94891710      1.33247827      0.36568551
H       6.37279324      0.40196515     -1.01291908
H       4.67482789      1.27496309      1.38983788
H       4.73094496      2.08644228     -0.17144343
H       3.88089483     -0.01700152     -1.27665689
H       3.73689120     -0.77166945      0.31311500
H       2.29191409      1.78256929     -0.55816192
H       2.16053683      1.03202861      1.03411895
H       1.39227980     -0.30387590     -1.61637065
H       1.25952051     -1.05414677     -0.02423191
H      -0.32679312      0.74919485      0.69335221
H      -0.19443668      1.49924999     -0.89891856
H      -1.22745217     -1.33732708     -0.36428931
H      -1.09468647     -0.58734169     -1.95669171
H      -2.68185921      1.21504561     -1.24092583
H      -2.80730869      0.46819076      0.35342619
H      -3.71954591     -1.61860221     -0.69631387
H      -3.56312366     -0.88515406     -2.29145732
H      -5.88186885     -0.64871307     -1.63371100
H      -5.15963050      0.95143941     -1.58560867
H      -5.48479727     -0.61762904      2.85634770
H      -7.20029145     -0.47969516      2.32254897
H      -6.45870180     -2.07357792      2.56905152
