19
CCCCC(C)=O
C       3.08104350      0.19850095     -0.22604802
C       1.74791469     -0.51538802     -0.38297747
C       0.58149434      0.37785554      0.03703386
C      -0.75540031     -0.34249092     -0.12199451
C      -1.93485953      0.52155259      0.28831189
C      -3.29617563     -0.11202181      0.16310277
O      -1.80744208      1.67320501      0.70109242
H       3.11866494      1.10002263     -0.84587163
H       3.90116352     -0.45853710     -0.53201523
H       3.24976742      0.48998499      0.81554081
H       1.62494482     -0.82156605     -1.42836898
H       1.75531960     -1.42824755      0.22393515
H       0.71148396      0.68880526      1.08118948
H       0.58146556      1.29393528     -0.56682538
H      -0.90004039     -0.63421364     -1.16815651
H      -0.76861223     -1.24591381      0.49778794
H      -3.34700232     -0.99937963      0.79879432
H      -3.47943105     -0.38317400     -0.87948303
H      -4.06429882      0.59707028      0.48406775
