50
CC(C)(C)NCC(O)COc1ccccc1C1CCCC1
C       5.42205881      0.57192814      1.28686176
C       4.85301937     -0.25051763      0.11490737
C       5.42586722     -1.67540402      0.19802639
C       5.28773535      0.41423957     -1.20102338
N       3.38968762     -0.23809185      0.28470100
C       2.60596255     -0.85866715     -0.79171322
C       1.11480368     -0.94006630     -0.41241492
O       0.97309969     -1.75251227      0.76756749
C       0.48970630      0.43968623     -0.16788003
O      -0.91502208      0.23154910      0.03590531
C      -1.71036673      1.34076125      0.17443144
C      -1.21958854      2.64587744      0.30024659
C      -2.09632746      3.71900382      0.45659852
C      -3.46676836      3.49479273      0.49382956
C      -3.96585130      2.19684140      0.37362581
C      -3.10334610      1.09941292      0.20880213
C      -3.62914027     -0.31823098      0.07287544
C      -5.11745499     -0.57019461      0.34436761
C      -5.32214046     -1.98316847     -0.18112402
C      -4.45718561     -2.05634781     -1.43567162
C      -3.46519504     -0.89443837     -1.34201022
H       5.15480748      0.13127013      2.25490798
H       5.04514447      1.60171439      1.27312420
H       6.51622880      0.62187177      1.24048272
H       6.52203458     -1.65561633      0.20607780
H       5.12240308     -2.29095812     -0.65512635
H       5.10078993     -2.18387730      1.11312025
H       4.85645270      1.41693249     -1.30229261
H       6.37810328      0.51995931     -1.24460804
H       4.98720347     -0.17342383     -2.07523355
H       3.14271721     -0.72749390      1.15173544
H       2.95879606     -1.87916667     -0.97244430
H       2.70305523     -0.28534234     -1.71934271
H       0.56730381     -1.45597139     -1.21010204
H       0.04687323     -1.63539159      1.05394387
H       0.65403550      1.08114798     -1.04136258
H       0.91371516      0.89006239      0.73684923
H      -0.15646820      2.86240337      0.29039295
H      -1.70708909      4.72893068      0.55516519
H      -4.15159781      4.32953818      0.61982873
H      -5.04335893      2.06679978      0.41309630
H      -3.06866383     -0.94647104      0.78126910
H      -5.76034720      0.11398741     -0.22177650
H      -5.37125333     -0.48229450      1.40532368
H      -4.96849331     -2.71283466      0.55711977
H      -6.37374276     -2.20123968     -0.38947858
H      -5.06907631     -1.95639575     -2.33903113
H      -3.94112789     -3.02045563     -1.49453811
H      -3.70955717     -0.14227472     -2.10297507
H      -2.44244178     -1.23186356     -1.53915194
