40
CCN(Cc1c(F)cccc1Cl)c1c([N+](=O)[O-])cc(C(F)(F)F)cc1[N+](=O)[O-]
C      -0.95408882      2.21512795     -2.76203933
C       0.20007497      2.07407405     -1.77986486
N      -0.13690141      1.10189549     -0.71980911
C      -0.97204668      1.62282467      0.38970381
C      -1.97836118      0.59928122      0.85134909
C      -3.17931464      0.46825593      0.14146741
F      -3.42579160      1.26884635     -0.90532478
C      -4.15163592     -0.46407756      0.49583960
C      -3.93950993     -1.29851493      1.58694595
C      -2.75541448     -1.18944443      2.31426666
C      -1.78173123     -0.24908064      1.95043752
Cl     -0.34885225     -0.19150609      2.91490253
C       0.91335803      0.23862338     -0.36217100
C       0.82909046     -1.13637829     -0.66671727
N      -0.29602794     -1.64381483     -1.43081332
O      -1.09815481     -2.36929184     -0.82685636
O      -0.31574110     -1.38998944     -2.64241138
C       1.80060946     -2.08323884     -0.28631948
C       2.94187910     -1.67507519      0.41329340
C       3.98033009     -2.68256740      0.85003425
F       3.64010601     -3.29814761      2.01246770
F       4.16654687     -3.67144486     -0.06512636
F       5.20385923     -2.12554394      1.05695534
C       3.08163390     -0.31508748      0.71507072
C       2.08900489      0.60803614      0.32261395
N       2.35860448      1.99099361      0.65565243
O       2.14577888      2.33962586      1.82334762
O       2.82646308      2.70400500     -0.24130160
H      -0.67234165      2.88547907     -3.57979184
H      -1.84174592      2.63527153     -2.28020879
H      -1.23015309      1.24721663     -3.19103599
H       0.43076169      3.05416796     -1.34579818
H       1.08090950      1.74607883     -2.34666114
H      -0.36609515      1.99107637      1.22199465
H      -1.52537254      2.51073278      0.05524168
H      -5.06480648     -0.53349775     -0.08760361
H      -4.68887946     -2.03435936      1.86673968
H      -2.59287955     -1.84775383      3.16503991
H       1.66385949     -3.13537677     -0.54057864
H       3.96297570      0.03257824      1.25706916
