23
C1=NC=NC2N=C(c3ccccc3)N=C12
C       3.33948457     -1.42279394     -0.02788926
N       4.34757095     -0.77823189      0.45687530
C       4.14620321      0.53622865      0.82766887
N       3.17592341      1.29942529      0.44842557
C       2.24912817      0.73209595     -0.51125102
N       0.86340531      1.18407613     -0.34020079
C       0.17371305      0.08849147     -0.16043845
C      -1.29837988      0.07290142      0.00259499
C      -1.98459712     -1.13288017      0.19103307
C      -3.37329241     -1.13126026      0.34021072
C      -4.07870717      0.07154115      0.30183711
C      -3.39934941      1.27519882      0.11500280
C      -2.01113779      1.27766870     -0.03464519
N       0.87613767     -1.10347609     -0.08630774
C       2.08711976     -0.69805654     -0.22639072
H       3.36110984     -2.48287173     -0.31710724
H       4.89247369      0.95404305      1.52529425
H       2.58257237      0.89773700     -1.54103164
H      -1.44705304     -2.07714074      0.22415299
H      -3.90442671     -2.06834343      0.48739454
H      -5.15968198      0.07127895      0.41915289
H      -3.94907474      2.21271222      0.08707176
H      -1.48914175      2.22165599     -0.17721822
