24
CC(C)(C)CCCO
C      -1.88909879     -0.25014070      1.58318321
C      -1.12712218     -0.03627732      0.26035781
C      -1.52686484      1.33189618     -0.31626057
C      -1.54158850     -1.14177722     -0.72466459
C       0.39376490     -0.09546294      0.56400968
C       1.32100051      0.09767837     -0.63925225
C       2.78662986      0.02098357     -0.22754997
O       3.59784779      0.20633769     -1.37944553
H      -1.64626451     -1.22219822      2.02713650
H      -1.63586631      0.52475235      2.31555816
H      -2.97347317     -0.21800087      1.42760727
H      -1.08869766      1.49981475     -1.30540705
H      -1.20216578      2.14713386      0.33978986
H      -2.61454277      1.40915565     -0.42843388
H      -1.22761455     -2.12833131     -0.36608998
H      -2.62987216     -1.16627157     -0.85363773
H      -1.10350454     -0.98791213     -1.71613120
H       0.63606682      0.66864105      1.31512018
H       0.62575894     -1.06320128      1.02919063
H       1.14136558      1.06597584     -1.11951541
H       1.13107743     -0.66271472     -1.40492389
H       3.01941835     -0.95580795      0.20829726
H       3.02988504      0.80307777      0.49869425
H       4.52386054      0.15264916     -1.08763276
