39
CC(C)(C)c1nc(-c2ccn[nH]2)c2c(N)c(C#N)c(N)nc2n1
C       3.41310167      0.58993846     -1.61270780
C       3.06734560      0.32756355     -0.13829680
C       3.65874758      1.45275579      0.73281450
C       3.70836405     -1.00252995      0.30430148
C       1.54809997      0.27558874     -0.00052977
N       0.93415391     -0.89923007     -0.14249580
C      -0.41391098     -0.90024225     -0.08437536
C      -0.91561706     -2.23260359     -0.40026288
C      -1.88731101     -2.69588673     -1.26757542
C      -1.85884571     -4.09658159     -1.14398661
N      -0.92115017     -4.50828878     -0.28961497
N      -0.31474443     -3.36785781      0.08329508
C      -1.19859399      0.23955490      0.19394690
C      -2.61635480      0.36663641      0.43443905
N      -3.47238416     -0.75807855      0.41468841
C      -3.16833523      1.65726199      0.53231360
C      -4.57886932      1.86103118      0.66394581
N      -5.72315757      1.98842334      0.81602244
C      -2.30872791      2.74328895      0.54130211
N      -2.74569315      4.06329546      0.62039808
N      -0.98071951      2.60473113      0.43068122
C      -0.43344192      1.40581140      0.26148839
N       0.88638690      1.42216566      0.16720404
H       3.01872914     -0.20045260     -2.26239030
H       4.49771544      0.63459268     -1.76321842
H       2.98953457      1.53964390     -1.96043980
H       3.29882394      2.44060777      0.42222456
H       3.39087027      1.32007131      1.78770402
H       4.75268624      1.47114431      0.66550007
H       3.44572154     -1.24419411      1.34103137
H       3.38239071     -1.84030985     -0.32331528
H       4.80156671     -0.95537404      0.23904569
H      -2.53690696     -2.10216441     -1.89635050
H      -2.47922344     -4.83169741     -1.64110177
H       0.50668103     -3.41835735      0.67711261
H      -4.40147045     -0.63657414      0.81521442
H      -3.05470067     -1.62796404      0.73981326
H      -3.36676036      4.24873270      1.40121683
H      -1.92400044      4.66554767      0.64095753
