13
C=COCC(F)(F)F
C       2.29497705     -0.01504944     -0.00607691
C       1.40043466     -0.85363865      0.52836205
O       0.03703580     -0.79426225      0.49852935
C      -0.55799256      0.30993907     -0.19520665
C      -2.07519064      0.22968090     -0.13603227
F      -2.54451420     -0.89685545     -0.71597735
F      -2.53413801      0.27107324      1.13414109
F      -2.62503960      1.27894964     -0.79532402
H       2.02465853      0.87216359     -0.56466451
H       3.35639764     -0.21295405      0.11290909
H       1.70696576     -1.73542154      1.08333492
H      -0.23755493      1.25082760      0.26719091
H      -0.24603949      0.29554735     -1.24603501
