26
O=C(C(=O)c1ccccc1)c1ccccc1
O       0.22385612      0.99151731      2.47120264
C       0.47892850      0.14620058      1.62099294
C      -0.58894074     -0.86342344      1.26981771
O      -0.38507627     -2.04261272      1.53520762
C      -1.82889602     -0.41579831      0.58356720
C      -2.77694684     -1.38426525      0.22446395
C      -3.94870390     -1.01232544     -0.43684677
C      -4.17999921      0.32745725     -0.74259367
C      -3.24266789      1.29646232     -0.38663875
C      -2.06777703      0.92896093      0.27488065
C       1.78307681      0.11707915      0.90884877
C       2.73329502      1.09965812      1.22079278
C       3.96551021      1.12184169      0.56517009
C       4.25533934      0.16373176     -0.40437439
C       3.31607737     -0.81784001     -0.71833324
C       2.08084048     -0.84377890     -0.06522543
H      -2.60879394     -2.43383400      0.45998600
H      -4.68117106     -1.76800252     -0.71029793
H      -5.09437182      0.61785550     -1.25469444
H      -3.42934763      2.34235778     -0.61985780
H      -1.36458205      1.71193295      0.54760670
H       2.51956661      1.85210082      1.97808543
H       4.69912980      1.88500965      0.81358021
H       5.21656145      0.17874799     -0.91278710
H       3.54796773     -1.56893287     -1.47014649
H       1.37712495     -1.63010031     -0.32674657
