27
CCc1[nH]c(=O)[nH]c1C(=O)c1ccncc1
C      -3.78372563      0.46406764     -0.19614275
C      -2.78367487      0.04898566      0.87239498
C      -1.68211649     -0.78528149      0.31112376
N      -1.87737432     -2.12457400      0.04224274
C      -0.70165368     -2.67419093     -0.47459389
O      -0.50875772     -3.81656764     -0.84025742
N       0.20955064     -1.61557858     -0.47976864
C      -0.40619407     -0.48101904      0.00404938
C       0.24253522      0.84965854      0.10195964
O      -0.40308822      1.89082204      0.03045542
C       1.71487815      0.91812601      0.25833391
C       2.39588094      1.96271035     -0.36705436
C       3.76675809      2.02873874     -0.20815705
N       4.47657702      1.14379977      0.52434252
C       3.78904977      0.16060603      1.14264845
C       2.41792284      0.00599649      1.04621195
H      -4.25288775     -0.40814588     -0.66374433
H      -4.57663272      1.07540245      0.24659992
H      -3.30099233      1.05455006     -0.98222596
H      -2.38342180      0.94477175      1.35917110
H      -3.30250382     -0.51323386      1.65839150
H      -2.73253897     -2.64790405      0.15839056
H       1.14281549     -1.69526093     -0.85292077
H       1.87252954      2.70530545     -0.96090786
H       4.34928934      2.81776882     -0.67595258
H       4.39104123     -0.51751502      1.74190306
H       1.92673414     -0.79203840      1.59153429
