17
CCC#CC(C)O
C       2.82528957      0.51153070      0.00220827
C       2.11806389     -0.83272770      0.03240135
C       0.65862254     -0.66650957      0.04320284
C      -0.53492814     -0.52662246      0.04921660
C      -1.99437309     -0.36012701      0.05134531
C      -2.38852355      1.07970510      0.33567557
O      -2.51620463     -0.72506291     -1.22203954
H       2.54998486      1.08351804     -0.89063412
H       3.91068855      0.37024962     -0.00547265
H       2.56654548      1.11456628      0.87943716
H       2.43416961     -1.39036549      0.92093293
H       2.41760027     -1.42124352     -0.84184352
H      -2.44861620     -1.01856511      0.79931335
H      -1.99044381      1.75779944     -0.42845590
H      -3.47833956      1.18927687      0.31589027
H      -2.02161324      1.41103183      1.31268024
H      -2.10792255     -1.57645409     -1.45377815
