38
CCC1(CC)C(=O)N(c2ccccc2)N=C1OC(C)=O
C      -1.71740404     -1.60632469     -1.73940286
C      -1.97258172     -1.62516102     -0.23400261
C      -1.03134365     -0.73588435      0.59487154
C      -1.39261896     -0.66670053      2.09509604
C      -1.60031840     -2.01146403      2.78096959
C       0.42501198     -1.14544420      0.42393451
O       0.86937175     -2.25304336      0.68367636
N       1.06889369     -0.00075406     -0.07406413
C       2.43961993      0.15811726     -0.40026794
C       2.90157711      1.37835221     -0.92275152
C       4.24800014      1.56266144     -1.25198248
C       5.15795761      0.52774260     -1.06341931
C       4.72046610     -0.68831002     -0.54668919
C       3.37199899     -0.87137561     -0.21773697
N       0.21981419      1.06527343     -0.28724965
C      -0.95931021      0.67114841      0.05993259
O      -2.11800464      1.35191917      0.03001190
C      -2.13079681      2.58471596     -0.54454746
C      -3.50151816      3.17548422     -0.38125620
O      -1.22458250      3.16027595     -1.12656238
H      -2.41555672     -2.28365390     -2.24229255
H      -0.70264850     -1.93807986     -1.97891210
H      -1.86564406     -0.60796124     -2.16156859
H      -1.88660382     -2.66715275      0.09715028
H      -3.01227697     -1.32054627     -0.06033428
H      -2.31086999     -0.07971300      2.22693172
H      -0.60841280     -0.12296954      2.63928002
H      -0.71670012     -2.64976875      2.69961561
H      -1.80004025     -1.85662862      3.84657885
H      -2.45821374     -2.54629037      2.36312320
H       2.21300406      2.20598917     -1.08357039
H       4.57934729      2.51570395     -1.65579544
H       6.20484789      0.66787296     -1.31868883
H       5.42667076     -1.50120340     -0.39700742
H       3.08118108     -1.83760434      0.18298664
H      -3.51373831      4.18622788     -0.79935854
H      -4.23372411      2.56608706     -0.91690770
H      -3.75485411      3.23846222      0.68020967
