53
CCCCc1nc(Cl)c(CO)n1Cc1ccc(-c2ccccc2-c2nnnn2[K])cc1
C      -6.22893486      1.97430873     -0.34253991
C      -5.45250512      1.44370660      0.81744705
C      -4.02127854      1.87217730      0.69974503
C      -3.31383791      1.39078110     -0.51563297
C      -3.27697881     -0.10172579     -0.62584680
N      -4.18434825     -0.79752917     -1.33158737
C      -3.91397117     -2.07881517     -1.25593885
Cl     -4.79547679     -3.39728771     -2.03123232
C      -2.78057595     -2.21755187     -0.46132948
C      -2.27048247     -3.55207717     -0.07022783
O      -1.96602510     -4.31175019     -1.20668473
N      -2.40063660     -0.98712760     -0.07839063
C      -1.37569173     -0.72140597      0.84011960
C       0.02524185     -0.55381641      0.41461653
C       0.89975432      0.04212824      1.33241591
C       2.25100636      0.16349508      1.11393028
C       2.81265100     -0.32278832     -0.07772731
C       4.26673081     -0.32057475     -0.18055893
C       4.90375767     -1.56657701     -0.38435085
C       6.24950464     -1.73079527     -0.34666576
C       7.06878382     -0.62422620     -0.09224640
C       6.48029981      0.57664339      0.09877194
C       5.07175347      0.75446250      0.05797821
C       4.63919813      2.12409889      0.32101259
N       4.77215906      2.82708898      1.44919509
N       4.34744737      4.06748641      1.26655837
N       3.94341651      4.15238924      0.02068966
N       4.11923514      2.96120414     -0.56982036
K       3.62096144      2.59959080     -2.98206890
C       1.95639149     -0.89424534     -0.97058448
C       0.57217278     -1.01940978     -0.75118339
H      -5.95067790      3.04568776     -0.49698277
H      -6.12778821      1.43237193     -1.28897325
H      -7.31766922      1.99683813     -0.04903775
H      -5.89143176      1.95182472      1.72802974
H      -5.59540663      0.36749427      0.94708099
H      -3.48320061      1.62114733      1.64253855
H      -4.01356971      3.00676100      0.64667085
H      -2.29695834      1.84287821     -0.58251072
H      -3.89570773      1.78534311     -1.40321239
H      -1.23016104     -3.37729698      0.42378196
H      -2.92015608     -4.02817590      0.65296908
H      -2.28070957     -3.77887647     -2.00727876
H      -1.59645932      0.14916950      1.52098806
H      -1.36729858     -1.58016427      1.62204521
H       0.44207605      0.39995371      2.25399920
H       2.91197406      0.61667241      1.83460027
H       4.24766188     -2.39671571     -0.56268731
H       6.75968274     -2.70401329     -0.50439995
H       8.16038408     -0.79677371     -0.06850195
H       7.14051748      1.43584640      0.29505698
H       2.35200695     -1.26592273     -1.89269907
H      -0.06683091     -1.47590711     -1.48571540
