23
CC(O)COC(C)CO
C       2.93914834      0.47318309     -1.65291435
C       2.10178125      0.20143913     -0.41561482
O       2.34835235     -1.13917789      0.01606781
C       0.60402106      0.37283842     -0.69044003
O      -0.10154290      0.07648782      0.52391723
C      -1.50355920      0.39203863      0.46228530
C      -2.00422918      0.42578806      1.90344935
C      -2.26821145     -0.65521853     -0.36255920
O      -2.03733806     -1.96906188      0.14006171
H       2.68346030     -0.22165270     -2.46046996
H       2.79743515      1.49685226     -2.01221374
H       4.00205959      0.32314724     -1.43507753
H       2.41145410      0.86289396      0.40124556
H       1.73001759     -1.28577760      0.75765322
H       0.39189816      1.39918562     -1.00910193
H       0.28305058     -0.33101048     -1.46495941
H      -1.64046462      1.38766952      0.02351780
H      -3.07368021      0.65294386      1.94771662
H      -1.46343854      1.18935239      2.47346558
H      -1.82396804     -0.52740250      2.41235743
H      -3.34531131     -0.46254162     -0.33957153
H      -1.94702786     -0.64495819     -1.40795928
H      -1.08390709     -2.01701863      0.34295111
