44
CC(C)(C)NC(=O)[C@@H]1C[C@@H]2CCCC[C@H]2C[NH2+]1
C       4.49269742     -1.40243510     -1.03019477
C       3.93431173     -0.20039035     -0.24600241
C       4.71450782     -0.07494964      1.07172342
C       4.12611984      1.06357588     -1.09910825
N       2.50020846     -0.44900454      0.01403463
C       1.66680951      0.41772197      0.67600977
O       2.00265803      1.50548978      1.14362571
C       0.20508139     -0.03462253      0.85319923
C      -0.50789491     -0.20865742     -0.48738975
C      -2.00631150     -0.48938391     -0.30201176
C      -2.71238977     -0.64144234     -1.65557114
C      -4.20636675     -0.90450121     -1.47777572
C      -4.87281453      0.16637940     -0.61901589
C      -4.16687071      0.33734705      0.72453506
C      -2.67101360      0.61989924      0.53825859
C      -1.97229402      0.76686010      1.88782420
N      -0.53073954      1.02054284      1.65761398
H       5.55734403     -1.27470020     -1.25560708
H       3.96089061     -1.53535023     -1.97965965
H       4.37878893     -2.33250012     -0.46100435
H       5.79017128      0.02322669      0.88649734
H       4.56065409     -0.95650201      1.70466746
H       4.40267567      0.80020604      1.65067747
H       3.54248197      1.00463383     -2.02503980
H       3.80859505      1.96793486     -0.57051974
H       5.17865057      1.19989576     -1.37237412
H       2.15269036     -1.35603848     -0.27674099
H       0.18455193     -0.95127933      1.45310430
H      -0.36845043      0.69081288     -1.10230931
H      -0.04990831     -1.03383831     -1.04649727
H      -2.10450207     -1.44260655      0.23762199
H      -2.57314294      0.26718293     -2.25499927
H      -2.26484803     -1.46739360     -2.22097138
H      -4.34954141     -1.88658186     -1.01037033
H      -4.69240217     -0.94481937     -2.45910366
H      -4.86495457      1.12176289     -1.15811637
H      -5.92344612     -0.09657714     -0.45202232
H      -4.30465033     -0.57108550      1.32469417
H      -4.63705283      1.15875401      1.27813378
H      -2.57288971      1.57247131     -0.00295031
H      -2.35897662      1.61924538      2.45482332
H      -2.05009138     -0.13775398      2.50031993
H      -0.37381123      1.92839456      1.18979891
H      -0.02452518      1.14007632      2.54872130
