23
CCCOP(=O)(OC)OC
C       3.76548585      0.54753096      0.23243177
C       2.36938805      1.04919817     -0.08936701
C       1.30117460      0.03284427      0.28784380
O       0.03131761      0.57100365     -0.03898797
P      -1.24117983     -0.37916526      0.22624309
O      -1.34381565     -0.93090713      1.61316659
O      -1.12938363     -1.48198236     -0.94167018
C      -2.13351845     -2.47478670     -0.96645312
O      -2.48515643      0.53020360     -0.24109523
C      -2.82617751      1.60966606      0.60338065
H       3.87273535      0.34600412      1.30303370
H       3.98680665     -0.37434347     -0.31480749
H       4.51211087      1.29682392     -0.04855711
H       2.18208373      1.99246941      0.43766759
H       2.29459633      1.28153433     -1.15848971
H       1.33593485     -0.17820076      1.36186912
H       1.45231570     -0.90301744     -0.26046565
H      -1.96092814     -3.12727007     -1.82601552
H      -3.12089838     -2.01562671     -1.06439827
H      -2.09132615     -3.07505473     -0.05365945
H      -3.14240929      1.23677635      1.58125814
H      -1.97466228      2.28536324      0.72053598
H      -3.65449384      2.16093654      0.15131892
