50
CCN(CC)C(=O)COC(=O)C(C)c1ccc2cc(OC)ccc2c1
C       6.82058863      0.30397428     -1.62984416
C       5.68437740      1.06492475     -0.96449580
N       4.91204563      0.20685061     -0.06563903
C       5.33353867      0.15312061      1.33469644
C       4.71898254      1.27621405      2.15584829
C       3.82493519     -0.48933029     -0.59271784
O       3.53324941     -0.43237632     -1.79117645
C       3.00726365     -1.36613983      0.36855967
O       1.78312046     -1.81769547     -0.21473811
C       0.82283996     -0.84687158     -0.30031235
O       0.92996398      0.27045693      0.18874832
C      -0.35813741     -1.36555262     -1.11277007
C      -0.05565130     -1.20225820     -2.60298737
C      -1.68436006     -0.72517193     -0.72731401
C      -1.93209912      0.63762106     -0.93356994
C      -3.15915629      1.20305880     -0.57668253
C      -4.17379641      0.42169442     -0.00458630
C      -5.41392633      0.98088517      0.35896816
C      -6.41487091      0.19176818      0.92864973
O      -7.65366478      0.61948583      1.32102819
C      -7.94617974      1.99890516      1.13825909
C      -6.17617630     -1.16628776      1.13681389
C      -4.95162432     -1.73651821      0.78256142
C      -3.93914945     -0.95353641      0.21033387
C      -2.69899606     -1.50901461     -0.15224838
H       6.44060780     -0.53575601     -2.22086218
H       7.51417098     -0.09973448     -0.88520801
H       7.38192552      0.96556591     -2.29679457
H       5.02367684      1.47403814     -1.73717739
H       6.07742372      1.91544715     -0.39703561
H       5.05652886     -0.81120673      1.76984816
H       6.42705797      0.21198708      1.37229504
H       5.03450071      1.19845414      3.20084454
H       3.62554863      1.24158725      2.12404764
H       5.02932063      2.25624040      1.77933394
H       2.80251432     -0.85120226      1.31198135
H       3.60145993     -2.25880030      0.58999637
H      -0.43788869     -2.44103005     -0.90248220
H       0.12315482     -0.15479456     -2.87087083
H       0.84517939     -1.76181214     -2.87922555
H      -0.88402825     -1.57223221     -3.21691633
H      -1.16433483      1.28034541     -1.36120449
H      -3.31173767      2.26664127     -0.74686336
H      -5.57235234      2.04033507      0.18559825
H      -7.26883752      2.62765376      1.72575062
H      -8.96301020      2.17590894      1.50177260
H      -7.92002834      2.27086594      0.07783066
H      -6.95070382     -1.78747117      1.57979393
H      -4.79707203     -2.79835143      0.95875059
H      -2.52619344     -2.57088578      0.01580658
