44
CCCC(=O)OCSc1ncnc2c1ncn2COC(=O)CCC
C      -8.65732713     -1.21443543      0.06391770
C      -8.45555321      0.26323923      0.37074693
C      -7.11635727      0.54522614      1.04982125
C      -5.93571553      0.43062040      0.11207852
O      -5.99983845      0.33883298     -1.10526349
O      -4.78152216      0.47273234      0.83194282
C      -3.60102132      0.39179961      0.02562577
S      -2.12404824      0.52254695      1.07667275
C      -0.86720648      0.47176491     -0.16278993
N      -1.16526056      0.12299411     -1.44074921
C      -0.16158793      0.09912140     -2.34087080
N       1.13949019      0.38241588     -2.14170687
C       1.37542760      0.71481782     -0.86169383
C       0.45390818      0.78848826      0.17369770
N       1.07873487      1.18000608      1.34256932
C       2.34618384      1.33647795      1.02271238
N       2.57263708      1.05545274     -0.29667553
C       3.84575960      1.13384541     -0.97487408
O       4.54591443     -0.10108180     -0.78559334
C       5.44771663     -0.10740149      0.23277569
O       5.67464829      0.84342985      0.96652449
C       6.08551862     -1.47407416      0.33879291
C       7.34187998     -1.48281604      1.20788270
C       8.52284785     -0.79760773      0.53443156
H      -8.60524815     -1.81568969      0.97786806
H      -7.90212622     -1.58626497     -0.63462130
H      -9.64161101     -1.37349760     -0.38872007
H      -9.26269159      0.59114862      1.03620938
H      -8.54773577      0.84371387     -0.55478043
H      -6.97310300     -0.14456914      1.88963503
H      -7.12193976      1.57073547      1.43735764
H      -3.58866830     -0.57382599     -0.49208187
H      -3.59826189      1.21610670     -0.69640918
H      -0.43871487     -0.18304743     -3.35306582
H       3.13403865      1.64473694      1.70135255
H       4.39225915      2.01373241     -0.61614149
H       3.66866703      1.26634811     -2.04696703
H       5.33945694     -2.14578625      0.77845051
H       6.32877671     -1.83599307     -0.66706160
H       7.61791084     -2.52333837      1.41660976
H       7.14498965     -1.00346892      2.17409419
H       8.77165547     -1.28933900     -0.41216655
H       9.40488934     -0.84439851      1.18138786
H       8.31222791      0.25630140      0.32830842
