54
CC(=O)C1(O)CCC2C3CCC4=CC(=O)CCC4(C)C3CCC21C
C       5.59055835     -1.18862408     -1.01764610
C       4.11189761     -0.91225610     -1.16536042
O       3.58826940     -0.96427204     -2.27887268
C       3.33623097     -0.52733440      0.12880900
O       3.92477463     -1.21713370      1.23164970
C       3.49942317      0.98844513      0.33077160
C       2.19257794      1.63094813     -0.14141607
C       1.30194844      0.49574071     -0.69020563
C      -0.19973305      0.85880064     -0.59695944
C      -0.88412119      0.77421042     -1.96949790
C      -2.32326607      1.27703450     -1.89137103
C      -3.12701822      0.57781529     -0.81743675
C      -4.34674579      0.09442374     -1.11427585
C      -5.22265114     -0.50812578     -0.08385347
O      -6.31873157     -0.95737783     -0.40964224
C      -4.76311591     -0.46802504      1.34891273
C      -3.24761666     -0.58597103      1.42876921
C      -2.48706431      0.47359924      0.57546094
C      -2.59524484      1.84605580      1.27539471
C      -0.99221964     -0.00095507      0.41357470
C      -0.19607315     -0.09498545      1.71935705
C       1.19527620     -0.72662165      1.55515440
C       1.78046567     -0.73775195      0.10778464
C       1.40647951     -2.07651756     -0.56399616
H       5.73823512     -2.12872672     -0.48093360
H       6.07522621     -0.36695670     -0.48522401
H       6.04688306     -1.27434449     -2.00809782
H       3.64915862     -2.14941744      1.18344887
H       4.34320845      1.40110985     -0.23401274
H       3.68146915      1.23745514      1.38323542
H       2.37562140      2.38855560     -0.91134494
H       1.72243525      2.14216702      0.70716593
H       1.56704691      0.37135499     -1.74768377
H      -0.26209068      1.90985867     -0.28831069
H      -0.86738130     -0.25965624     -2.33762305
H      -0.33766820      1.38306978     -2.70007917
H      -2.78958942      1.15749670     -2.87706193
H      -2.32078532      2.35394198     -1.68113597
H      -4.78063342      0.16169593     -2.10618597
H      -5.12349332      0.45789744      1.80766746
H      -5.21639834     -1.31106107      1.88215490
H      -2.95198903     -0.51920379      2.48245898
H      -2.96948061     -1.59462073      1.09208689
H      -2.02217415      2.62447395      0.76302322
H      -2.23471956      1.79774915      2.30842814
H      -3.63294484      2.19709180      1.31302623
H      -1.06120041     -1.01436144      0.00157943
H      -0.06692096      0.91113668      2.13783755
H      -0.73911825     -0.66942973      2.47665424
H       1.86252842     -0.19636454      2.24654232
H       1.16241529     -1.75578424      1.93792964
H       0.38826140     -2.39755556     -0.33362255
H       2.06464463     -2.88358213     -0.22364477
H       1.47515355     -2.02511179     -1.65445485
