55
O=C(CCc1ccc(O)cc1)c1c(O)cc(O)cc1O[C@@H]1O[C@H](CO)[C@@H](O)[C@H](O)[C@H]1O
O       0.63897952     -1.37647479     -1.14227392
C       1.33042301     -0.36247380     -1.04408177
C       2.76714968     -0.39011125     -0.56597893
C       2.92587866     -1.38410685      0.58267640
C       4.32562840     -1.35950353      1.14612785
C       4.67056417     -0.44422296      2.15199253
C       5.97144247     -0.40570611      2.65971447
C       6.92768217     -1.28335213      2.15888835
O       8.20896910     -1.28082274      2.62624152
C       6.60490664     -2.19358750      1.16107155
C       5.30573016     -2.23087238      0.65199993
C       0.73412063      0.95204954     -1.38427774
C       1.37785207      1.84211962     -2.25071223
O       2.57273339      1.50293177     -2.82091582
C       0.79811798      3.07454700     -2.54873083
C      -0.41997873      3.41633098     -1.96904875
O      -0.93511023      4.64434218     -2.26391856
C      -1.08068865      2.54139015     -1.11271786
C      -0.51211109      1.29370712     -0.83811409
O      -1.10017918      0.42728415      0.04443402
C      -2.45982851      0.08723715     -0.28588869
O      -3.33988007      0.91482319      0.47743785
C      -4.72992960      0.59906823      0.30219634
C      -5.55735021      1.57901719      1.15050218
O      -5.29885709      1.39785551      2.54276190
C      -5.02860576     -0.85793595      0.67885061
O      -6.38883605     -1.18868486      0.36778214
C      -4.11031985     -1.79092382     -0.10632939
O      -4.32471838     -3.14398792      0.33016782
C      -2.64400561     -1.40347801      0.06382181
O      -1.88379317     -2.27240260     -0.79190869
H       3.06357090      0.61060507     -0.22913165
H       3.40656199     -0.66829825     -1.41038629
H       2.68270263     -2.40087481      0.24646902
H       2.20776351     -1.15998210      1.38233886
H       3.92535382      0.24460283      2.54455083
H       6.21716465      0.31137188      3.43639238
H       8.29364917     -0.57378090      3.28654448
H       7.36186346     -2.87365209      0.77930740
H       5.06227605     -2.94585295     -0.12994335
H       2.85602627      2.20823363     -3.42784706
H       1.27958092      3.78330932     -3.21642071
H      -1.72065478      4.80088701     -1.71325574
H      -2.01509621      2.82842879     -0.64113437
H      -2.64543779      0.23375180     -1.35987805
H      -4.99277798      0.77728049     -0.74939416
H      -6.62954439      1.44040649      0.97552178
H      -5.28552637      2.61004098      0.90152348
H      -5.84317587      2.04528988      3.02287727
H      -4.88467820     -1.02944541      1.75339927
H      -6.44392006     -2.15895745      0.49385932
H      -4.38496441     -1.78434350     -1.16864874
H      -3.58897396     -3.65323415     -0.06900894
H      -2.31526178     -1.60482608      1.09014637
H      -0.95248743     -1.94501707     -0.80287527
