26
CCCCc1ccc2[n-]nnc2c1.[Na+]
C      -3.86829928      0.38722297     -1.12535144
C      -2.90994452     -0.57960753     -0.44838511
C      -1.50440481      0.01069987     -0.33703570
C      -0.54484003     -0.96692395      0.34494995
C       0.84670890     -0.39374503      0.45959736
C       1.20318681      0.37375775      1.58559587
C       2.47664105      0.93413449      1.71836460
C       3.39902202      0.71361602      0.68683356
N       4.67929521      1.12504682      0.54538079
N       5.08976678      0.62247247     -0.64708840
N       4.11988001     -0.09352795     -1.27142638
C       3.05025570     -0.04675697     -0.44513754
C       1.77109065     -0.60721184     -0.57421857
Na      0.00000000      0.00000000      0.00000000
H      -3.53225595      0.62740978     -2.13911697
H      -3.94859714      1.32082030     -0.55941439
H      -4.86703868     -0.05510445     -1.19441565
H      -3.29134603     -0.82398291      0.54986341
H      -2.87725685     -1.51361787     -1.02131059
H      -1.54479425      0.94996983      0.22909223
H      -1.13157871      0.26194483     -1.33816889
H      -0.50535516     -1.91048196     -0.21421780
H      -0.91494506     -1.22538758      1.34526042
H       0.47849681      0.54325821      2.37844937
H       2.77723199      1.52516144      2.57142679
H       1.54908054     -1.17916676     -1.46414948
