32
CCC(C)COC(=O)C(C)CC
C       3.83398036     -0.17269794     -1.45436093
C       2.45011890     -0.55413497     -0.94693801
C       2.21808891     -0.20668143      0.53792712
C       3.18292107     -0.95106705      1.46246760
C       0.76909450     -0.51872879      0.94776924
O      -0.12396595      0.30238789      0.18213422
C      -1.44479937      0.07775326      0.42968716
O      -1.88074876     -0.73083147      1.23764807
C      -2.29708995      0.99845246     -0.42484429
C      -2.69161348      2.20769124      0.41798888
C      -3.53817607      0.27114207     -0.96091627
C      -3.18698453     -0.82478808     -1.95914397
H       3.89683374     -0.34319768     -2.53406601
H       4.04432306      0.88472311     -1.26598484
H       4.61598215     -0.77352248     -0.98129296
H       1.71066229     -0.03131829     -1.56539677
H       2.29294524     -1.62749756     -1.10936905
H       2.38002172      0.87258335      0.65888863
H       2.96416543     -0.72886740      2.51257751
H       4.21994137     -0.65362698      1.28028761
H       3.10806256     -2.03488462      1.32384113
H       0.62615592     -0.29492525      2.01187428
H       0.54315289     -1.57722231      0.76833413
H      -1.69968209      1.34135100     -1.27925908
H      -3.26997540      2.92452456     -0.17393438
H      -3.29674232      1.91099043      1.28198630
H      -1.80365191      2.72322777      0.80012296
H      -4.19626457      0.99304169     -1.45983816
H      -4.11407234     -0.16786470     -0.13713412
H      -2.58400191     -1.61148675     -1.49558921
H      -4.10046605     -1.28718279     -2.34651677
H      -2.62821541     -0.41734229     -2.80771250
