21
O=C([O-])CC(O)(CC(=O)[O-])C(=O)[O-].[Na+].[Na+].[Na+]
O      -1.16709528     -1.98063613      1.84858009
C      -1.90811999     -1.46332407      0.96039603
O      -3.04829262     -1.89516909      0.58576247
C      -1.48797406     -0.10593707      0.38092541
C      -0.14986694      0.15402653     -0.34875589
O      -0.14719059     -0.61205204     -1.58559229
C       1.10173822     -0.21500979      0.45959196
C       2.46215986      0.06586698     -0.19818605
O       3.44914515      0.17484322      0.59892356
O       2.50222196      0.06749214     -1.46713370
C      -0.17097270      1.72436623     -0.66840306
O      -0.45408029      2.06317258     -1.86457699
O       0.03079572      2.51236957      0.31182311
Na      0.00000000      0.00000000      0.00000000
Na      0.00000000      0.00000000      0.00000000
Na      0.00000000      0.00000000      0.00000000
H      -1.56413479      0.58535728      1.23284966
H      -2.29557877      0.19113017     -0.30523851
H       0.66372680     -0.25944295     -2.02470231
H       1.08087786      0.28858792      1.43395915
H       1.10264047     -1.29564149      0.64977738
