50
CCCCCCCCCCCCCCCC(=O)O
C      -6.50382782     -1.43935366     -1.51188068
C      -5.96390053     -0.10188267     -1.99419511
C      -5.58808830      0.85125163     -0.85758286
C      -4.41621982      0.35079167     -0.00855089
C      -4.01094461      1.39130801      1.03905929
C      -2.92312704      0.89905578      1.99822531
C      -1.57753784      0.64428293      1.31360821
C      -0.50212868      0.26377629      2.33500872
C       0.89101451      0.10006370      1.71838584
C       0.98468842     -1.07120486      0.73690957
C       2.41943369     -1.37713916      0.29486502
C       3.05629629     -0.25040945     -0.52169801
C       4.44301651     -0.65138981     -1.03138095
C       5.08287633      0.47703533     -1.84555689
C       6.44630274      0.08821991     -2.40919153
C       7.48789408     -0.07142214     -1.33830116
O       8.01773253     -1.11575281     -0.99834051
O       7.82084010      1.09296794     -0.75123511
H      -6.84452812     -2.03587130     -2.36432094
H      -5.73586286     -2.01761173     -0.98998549
H      -7.35288409     -1.29981062     -0.83538332
H      -6.73070240      0.38050890     -2.61209635
H      -5.09586870     -0.27114488     -2.64190659
H      -5.32351222      1.82095880     -1.29729993
H      -6.46249687      1.02247879     -0.21792437
H      -3.56789363      0.12908323     -0.66530166
H      -4.69139389     -0.58060391      0.49850390
H      -4.89250586      1.66221707      1.63340734
H      -3.67311181      2.30773161      0.54002085
H      -3.26182750     -0.01514465      2.50075855
H      -2.78978812      1.65766142      2.77953560
H      -1.26575280      1.54383375      0.76969376
H      -1.68647830     -0.16122208      0.58075010
H      -0.78915809     -0.66253761      2.84743284
H      -0.44472758      1.04457196      3.10362231
H       1.17346525      1.03437754      1.22013359
H       1.60872196     -0.05596175      2.53315193
H       0.37248621     -0.87155038     -0.14983250
H       0.57424771     -1.97107383      1.21130064
H       3.03760287     -1.59224394      1.17497924
H       2.40244891     -2.29255745     -0.30966222
H       2.41013943     -0.00220314     -1.37227830
H       3.14828385      0.65256644      0.09214353
H       5.08271234     -0.90618264     -0.17819835
H       4.35943334     -1.55057483     -1.65379915
H       4.42187322      0.73487779     -2.68198270
H       5.17334028      1.37409649     -1.22124050
H       6.38011222     -0.84986807     -2.97200790
H       6.80064912      0.85098988     -3.11213640
H       8.49865562      0.84001050     -0.08993257
