41
CC(C)(C)c1nc(-c2ccccn2)c2c(N)c(C#N)c(N)nc2n1
C       3.80708160      0.08717069      1.05317913
C       3.19252938     -0.18878729     -0.32832084
C       3.82392280     -1.46279872     -0.92250944
C       3.51709600      0.98633927     -1.27168035
C       1.68500721     -0.35688679     -0.16065720
N       0.90786176      0.71925234     -0.26561825
C      -0.42482012      0.57107097     -0.04581172
C      -1.13745883      1.86751968     -0.13309038
C      -0.86368690      2.77825306     -1.15685227
C      -1.50167517      4.01670002     -1.16436936
C      -2.38712777      4.33094222     -0.14336984
C      -2.60622585      3.38567408      0.84195467
N      -2.01997367      2.16347870      0.86392250
C      -1.01893849     -0.68155782      0.25312106
C      -2.40577126     -1.03288959      0.45755713
N      -3.43919215     -0.08894880      0.22195676
C      -2.74470285     -2.38311575      0.66357481
C      -4.10628233     -2.80124639      0.80489020
N      -5.21978373     -3.11578381      0.90749894
C      -1.72341050     -3.31345350      0.74432804
N      -1.93770479     -4.66226256      1.02169692
N      -0.43569820     -2.97505541      0.60218617
C      -0.08653468     -1.71956801      0.34280150
N       1.21254772     -1.56039268      0.15942227
H       3.61399117     -0.73766652      1.74933786
H       4.89309928      0.21722150      0.98469661
H       3.39008838      0.99682088      1.50150330
H       4.90134876     -1.33431846     -1.07813062
H       3.69329413     -2.32837662     -0.26252248
H       3.37397396     -1.71418800     -1.89024243
H       4.59847787      1.08672643     -1.42037287
H       3.05632514      0.84391429     -2.25636747
H       3.15521755      1.94104929     -0.87216831
H      -0.14746960      2.53121573     -1.93553961
H      -1.29458616      4.73336412     -1.95423161
H      -2.88933506      5.29154178     -0.11314594
H      -3.28437356      3.58887726      1.66675044
H      -3.16208221      0.86159195      0.49328544
H      -4.33923833     -0.30480126      0.64589470
H      -1.03421053     -5.13229507      0.99064919
H      -2.61157997     -5.10433119      0.40479333
