21
C#CCN(CC)CC
C      -2.23659204     -1.73986621      1.02504460
C      -1.48905759     -1.29343982      0.19731396
C      -0.57604323     -0.75088097     -0.82330740
N       0.37756701      0.25263829     -0.32054758
C       1.31880569     -0.27960222      0.68049538
C       2.20473962     -1.40594747      0.15701794
C      -0.26870962      1.47353693      0.19231706
C      -1.08435711      2.22629091     -0.85441234
H      -2.89884017     -2.13479097      1.76038073
H      -0.03089686     -1.57537577     -1.29690640
H      -1.16310395     -0.32504781     -1.64507248
H       0.79803568     -0.61269149      1.58656720
H       1.99547168      0.52739940      0.99025508
H       1.63807849     -2.32567837     -0.01558520
H       2.98429976     -1.63686183      0.89083695
H       2.69965020     -1.11857161     -0.77653180
H       0.51104182      2.16670003      0.53377305
H      -0.89811246      1.26041729      1.06498407
H      -1.99321852      1.68446128     -1.13224749
H      -0.49479024      2.40913856     -1.75885390
H      -1.39396815      3.19817186     -0.45552144
