30
O=C1C=CN(C2OC(CO)C(O)C2O)C(=O)C1
O       4.90297521      0.35151285      0.10032131
C       3.70164811      0.36571638     -0.16161233
C       2.75128030      0.76294909      0.88338355
C       1.44666132      0.77900052      0.61319045
N       0.90659726      0.43321495     -0.60939783
C      -0.54559704      0.47758087     -0.84932881
O      -1.22265310      1.19756719      0.20803757
C      -2.19162153      0.29781721      0.80235671
C      -2.27151887      0.55720753      2.30272849
O      -2.65292349      1.91292770      2.53891387
C      -1.72966790     -1.10783430      0.46096071
O      -2.77351472     -2.06672342      0.52676723
C      -1.23339533     -0.90328380     -0.95625713
O      -0.43819722     -2.00587363     -1.37674140
C       1.68799229      0.02745504     -1.68557114
O       1.18297291     -0.31861394     -2.75927019
C       3.18019762     -0.00122687     -1.51175936
H       3.15600097      1.03935938      1.84901929
H       0.75841920      1.08704481      1.39559414
H      -0.70582180      1.03787115     -1.77875882
H      -3.16324497      0.52539736      0.34541191
H      -3.00522511     -0.09655566      2.78296440
H      -1.29879930      0.40864428      2.78224169
H      -2.13244465      2.45630607      1.91708449
H      -0.91404124     -1.44478491      1.11220781
H      -2.42733017     -2.87179766      0.09351293
H      -2.09155887     -0.84195573     -1.63775130
H      -0.00632580     -1.73386618     -2.21578595
H       3.51760232     -1.01971149     -1.73293247
H       3.61153360      0.69465522     -2.23926651
