60
CCCCCCCCN.CCCCOP(=O)(S)OCCCC
C       4.75411570     -0.11405849      0.10209505
C       3.43306172      0.63403203      0.18462244
C       2.24590699     -0.29735118     -0.05910841
C       0.91888918      0.45868802      0.02467367
C      -0.26886128     -0.47370420     -0.21987097
C      -1.59701286      0.28214448     -0.13530812
C      -2.78375114     -0.65466879     -0.37916806
C      -4.13401984      0.06575674     -0.40488400
N      -4.49172899      0.65674949      0.87923745
C       5.27555499      0.28124146      0.28454226
C       4.26435937      1.40799370      0.13921204
C       3.00572957      1.00026113     -0.62453137
C       2.16811405     -0.04983396      0.09478211
O       0.99193391     -0.28123351     -0.66625987
P       0.02247193     -1.47746301     -0.16776667
O      -0.21157636     -1.44056039      1.31461001
S       0.79206507     -3.30833049     -0.78995590
O      -1.31679628     -1.16029618     -1.01578019
C      -2.08247895     -0.02754501     -0.63636375
C      -3.32958659     -0.49329653      0.10423460
C      -4.20865521      0.68243222      0.52082875
C      -5.45301952      0.21396545      1.25809973
H       4.80197243     -0.90963793      0.85252114
H       4.88853495     -0.56505320     -0.88628265
H       5.58931774      0.57074956      0.27933133
H       3.34456558      1.09948816      1.17318078
H       3.43063765      1.44222122     -0.55602297
H       2.34157016     -0.76352416     -1.04735130
H       2.25538152     -1.10612153      0.68176704
H       0.82326192      0.92415720      1.01319657
H       0.90941013      1.26756246     -0.71601561
H      -0.17271496     -0.93863804     -1.20860010
H      -0.25946979     -1.28284617      0.52054733
H      -1.68175948      0.74841971      0.85290238
H      -1.60774272      1.08896578     -0.87810596
H      -2.79760378     -1.44014841      0.38696334
H      -2.64865429     -1.16058471     -1.34343219
H      -4.91444582     -0.65089036     -0.68316801
H      -4.13093465      0.84731346     -1.17244053
H      -4.42896369     -0.05011501      1.61086499
H      -3.81896236      1.38019331      1.12785540
H       5.54164849     -0.13703136     -0.69139963
H       4.88910288     -0.52582636      0.91381413
H       6.19108341      0.65656528      0.75305172
H       4.74183381      2.23853069     -0.39466896
H       3.99274637      1.78446915      1.13228980
H       2.38740451      1.89144842     -0.79278871
H       3.27125718      0.63485268     -1.62460117
H       2.72059673     -0.98819797      0.19755580
H       1.88310544      0.30609504      1.09016874
H       0.70925248     -3.02311895     -2.09367652
H      -1.48990729      0.65672780     -0.01892273
H      -2.35919345      0.50671301     -1.55114618
H      -3.03620565     -1.07709238      0.98511666
H      -3.89490092     -1.18231457     -0.53568998
H      -3.64115419      1.36079143      1.16848863
H      -4.50932362      1.25453874     -0.36455860
H      -6.06888478      1.07185973      1.54542738
H      -6.05936123     -0.44293677      0.62638220
H      -5.18721614     -0.33340846      2.16793193
