52
CCCCC(CC)CCCCCc1ccc(S(=O)(=O)[O-])cc1.[Na+]
C      -6.91487736     -2.29497586     -0.67408304
C      -6.36075844     -0.95495128     -0.21687610
C      -4.86385127     -0.83781052     -0.51013488
C      -4.31202316      0.51342742     -0.04152731
C      -2.83426859      0.74987872     -0.43429045
C      -2.46062749      2.23824707     -0.24536055
C      -2.45049791      2.72717434      1.19669161
C      -1.89018050     -0.22649509      0.30271430
C      -0.41049630     -0.05153706     -0.06019037
C       0.45037184     -1.13580168      0.59472360
C       1.92430314     -1.07192939      0.18371124
C       2.63803868      0.18895210      0.67837745
C       4.11156035      0.15370861      0.35710144
C       4.57699608      0.61458831     -0.88495795
C       5.93795356      0.56732825     -1.19197256
C       6.83743582      0.05962227     -0.25210167
S       8.60090393     -0.03462131     -0.66117164
O       9.05188407     -1.20259729      0.09208856
O       8.59390143     -0.20314619     -2.11255303
O       9.08869987      1.25378088     -0.17842367
C       6.38950104     -0.41758731      0.98156035
C       5.02757241     -0.36835175      1.28424687
Na      0.00000000      0.00000000      0.00000000
H      -7.98557621     -2.35676380     -0.45570318
H      -6.41508511     -3.12224059     -0.16010780
H      -6.77972690     -2.42805949     -1.75220451
H      -6.53937610     -0.83965556      0.85854287
H      -6.90450513     -0.14986317     -0.72466709
H      -4.33922657     -1.65655746     -0.00621679
H      -4.69194540     -0.95261950     -1.58703402
H      -4.42848308      0.58851639      1.04646244
H      -4.92743762      1.30867876     -0.48146763
H      -2.74437340      0.54493384     -1.51027235
H      -1.47772195      2.43063379     -0.69086594
H      -3.16576860      2.85654528     -0.81553901
H      -2.18614673      3.78943831      1.22616821
H      -1.71552961      2.18837853      1.80115863
H      -3.43265784      2.61896502      1.66538375
H      -2.01554438     -0.12581781      1.38762005
H      -2.17655710     -1.25479849      0.05404157
H      -0.29195617     -0.09653385     -1.14924245
H      -0.06459581      0.93263165      0.26929304
H       0.36892204     -1.06482801      1.68619471
H       0.06101590     -2.12192465      0.31253981
H       2.42922624     -1.95799233      0.59005703
H       2.00438038     -1.14593350     -0.90823264
H       2.20037583      1.08650183      0.22589796
H       2.50345335      0.29894938      1.76179506
H       3.88434033      1.00996922     -1.62291713
H       6.30576096      0.91930802     -2.15231469
H       7.10464220     -0.82309664      1.69260848
H       4.68855525     -0.74366842      2.24591336
