41
CCOC(=O)C(C)Oc1ccc(Oc2nc3ccc(Cl)cc3o2)cc1
C      -5.31432826     -2.57045947     -0.99524902
C      -4.66557692     -1.24179808     -1.33084415
O      -4.26628472     -0.61742237     -0.10460607
C      -3.66398282      0.60016983     -0.26583641
O      -3.46872060      1.13564858     -1.34941303
C      -3.26838346      1.16827684      1.10200038
C      -4.52738315      1.53859292      1.87903243
O      -2.48837110      2.36634254      0.98684314
C      -1.14943766      2.09247032      1.02939516
C      -0.50137273      1.99916550      2.25956654
C       0.87058451      1.74723239      2.29584646
C       1.58550660      1.59087096      1.10492900
O       2.93792679      1.38637844      1.22313272
C       3.57189074      0.50582124      0.45796821
N       3.07364341     -0.37935132     -0.38103077
C       4.18935684     -1.01637902     -0.85669207
C       4.32985631     -2.05562876     -1.78539701
C       5.62625081     -2.50919469     -2.07691527
C       6.74503946     -1.93837694     -1.45600978
Cl      8.31521146     -2.53144160     -1.84790397
C       6.62638102     -0.90065079     -0.52624834
C       5.32695637     -0.48297723     -0.26814228
O       4.93059756      0.50205546      0.58924861
C       0.93588850      1.73147583     -0.12473336
C      -0.43648279      1.98474162     -0.16177993
H      -6.18230856     -2.42204122     -0.34432249
H      -4.61512783     -3.21440494     -0.45159387
H      -5.63770792     -3.08720100     -1.90313685
H      -3.78696905     -1.40857378     -1.96399120
H      -5.38385455     -0.60157112     -1.85507527
H      -2.72317223      0.38770196      1.65078982
H      -4.26507031      1.97019060      2.85097349
H      -5.17133825      0.66959095      2.04622755
H      -5.10984458      2.29482793      1.34030175
H      -1.05649419      2.12992772      3.18356029
H       1.38225543      1.67588119      3.25188112
H       3.45880881     -2.49272834     -2.26155183
H       5.75492955     -3.31576071     -2.79611807
H       7.47925815     -0.44829564     -0.03717821
H       1.48504835      1.65495927     -1.05911011
H      -0.94317896      2.10193495     -1.11649909
