28
CCOC(=O)[C@@H](N)CC(C)C
C       3.87014480      0.98160026      1.27167892
C       3.28089063     -0.32118601      0.76734216
O       1.99435683     -0.04071733      0.20324674
C       1.34420930     -1.13664045     -0.28066671
O       1.78789481     -2.27952812     -0.26804302
C      -0.02020428     -0.73694968     -0.87345229
N      -0.62785545     -1.89869129     -1.56604935
C      -0.94817905     -0.22508830      0.24002365
C      -2.35415303      0.21356577     -0.21975525
C      -2.30358023      1.36349460     -1.22656987
C      -3.18865132      0.62806870      0.99558704
H       4.85710004      0.81837656      1.71342078
H       3.96342620      1.70442125      0.45440590
H       3.21616064      1.43459083      2.02416737
H       3.17444623     -1.02570160      1.59982628
H       3.93479987     -0.75088295      0.00028874
H       0.16905923      0.03891019     -1.62270486
H       0.05412905     -2.25748209     -2.23840458
H      -0.72092469     -2.65778286     -0.88651078
H      -0.46499976      0.61930428      0.75003299
H      -1.05206511     -1.00809691      1.00449327
H      -2.86247952     -0.63557936     -0.69236698
H      -3.31404451      1.70215932     -1.48006757
H      -1.82270980      1.05551961     -2.15979455
H      -1.75192847      2.21972419     -0.82396009
H      -2.74192858      1.48461937      1.51194315
H      -3.26885215     -0.19637591      1.71198641
H      -4.20406168      0.90634793      0.69391036
