17
Cc1ccc(C=O)cc1
C       2.72642849      0.00504403     -0.09500666
C       1.22754507     -0.00822404     -0.01913541
C       0.50475865     -1.11899349     -0.47552861
C      -0.89169657     -1.12151568     -0.43502978
C      -1.57024437     -0.00325837      0.05458827
C      -3.04616359     -0.01163267      0.09411964
O      -3.69508651      0.94029491      0.50960065
C      -0.86150008      1.11497415      0.49859446
C       0.53400583      1.11273013      0.45616005
H       3.15242622      0.62126748      0.70373845
H       3.13227009     -1.00516348      0.02316313
H       3.04829826      0.40532960     -1.06126609
H       1.02842806     -1.98992064     -0.86486468
H      -1.43265565     -1.99499888     -0.78882477
H      -3.54234040     -0.92589171     -0.27231089
H      -1.39105951      1.98801099      0.87435433
H       1.07658602      1.99194766      0.79764791
