40
COC(=O)C1(S(=O)(=O)c2ccc(C)cc2)CCCCC1
C      -1.77454550      3.38736639      1.29749684
O      -1.98777011      2.21064826      0.51491240
C      -1.17280603      1.16554481      0.82332076
O      -0.33773396      1.20067980      1.72045666
C      -1.41003419     -0.04609455     -0.06788145
S      -0.31259211      0.19436168     -1.47918008
O      -0.36075343     -0.98616265     -2.32460035
O      -0.59143846      1.48947211     -2.07610178
C       1.35550681      0.27768881     -0.85352789
C       1.91390441      1.51661402     -0.53049663
C       3.23367256      1.58085190     -0.08033415
C       4.00991218      0.41827832      0.01624106
C       5.41775054      0.48832519      0.53128300
C       3.44356824     -0.81548840     -0.33021101
C       2.12415054     -0.88716445     -0.77992024
C      -2.88869474     -0.09479845     -0.53202467
C      -3.31956707     -1.42044617     -1.15749302
C      -2.99739685     -2.60420197     -0.25829283
C      -1.52543173     -2.63068486      0.12471786
C      -1.08030219     -1.31374956      0.75587644
H      -2.46810225      4.15678039      0.94752396
H      -0.75229758      3.75514161      1.16468228
H      -1.98194782      3.18638373      2.35302610
H       1.33648776      2.43370411     -0.62087189
H       3.65670181      2.54663644      0.18881264
H       6.03463022     -0.30226485      0.09125789
H       5.42325576      0.37721515      1.61991257
H       5.88212406      1.44510465      0.27026766
H       4.03260228     -1.72784126     -0.26078083
H       1.71165330     -1.85042557     -1.07152633
H      -3.10005004      0.70901134     -1.24853840
H      -3.54077762      0.09188122      0.33293760
H      -4.39905969     -1.39446259     -1.34800389
H      -2.84081497     -1.55342174     -2.13312663
H      -3.26464208     -3.53808534     -0.76550045
H      -3.61001629     -2.54959188      0.65013982
H      -1.35269454     -3.44705319      0.83611001
H      -0.91512892     -2.85974569     -0.75432432
H      -0.01149871     -1.37489237      0.98550868
H      -1.57982359     -1.23511438      1.73260036
