13
Cc1oncc1C(=O)[O-]
C      -1.87696959      0.03924336     -0.26156145
C      -0.52729640     -0.48817284     -0.00121122
O      -0.41062694     -1.83168661      0.20919532
N       0.92586678     -2.15091155      0.43760873
C       1.58051535     -0.98541473      0.35812475
C       0.71620086      0.07886542      0.08621952
C       1.11470851      1.55932774     -0.07378092
O       2.34823600      1.82143322      0.05643498
O       0.17868187      2.37813964     -0.31992448
H      -2.15654384      0.77436345      0.49931081
H      -1.91907205      0.52218198     -1.24262569
H      -2.62530302     -0.75949727     -0.24794492
H       2.65160247     -0.95787181      0.50015456
