25
O=C1c2ccccc2C(=O)c2c(O)cccc21
O       0.57962199     -2.52394948     -1.06864310
C       0.35724161     -1.41435499     -0.59861579
C       1.47462383     -0.52929725     -0.21503176
C       2.79523660     -0.96208156     -0.39008916
C       3.85641311     -0.12998809     -0.02937982
C       3.60288300      1.13279236      0.50552756
C       2.28763043      1.56625711      0.68090028
C       1.22181408      0.73241301      0.31942142
C      -0.16553599      1.19618357      0.50719652
O      -0.39897917      2.30632636      0.97737480
C      -1.28722675      0.31634099      0.12579461
C      -2.61463928      0.73370223      0.29425070
O      -2.95508920      1.95507140      0.81097154
C      -3.67147346     -0.09950366     -0.06689816
C      -3.41202412     -1.36068163     -0.60108471
C      -2.09413130     -1.78583032     -0.77291179
C      -1.03123634     -0.94654957     -0.40914170
H       3.00144853     -1.94656834     -0.80704790
H       4.88152857     -0.46780991     -0.16606411
H       4.43039416      1.78085673      0.78646302
H       2.09910706      2.55352318      1.09916865
H      -2.12548482      2.44077351      1.02293284
H      -4.69679068      0.23655360      0.06903135
H      -4.23635006     -2.01176875     -0.88328559
H      -1.89898180     -2.77241049     -1.19083971
