20
O=C(S)CCCCC(=O)S
O       3.49297292     -0.43530235      0.65406255
C       3.10314461     -0.40158540     -0.50436070
S       4.24390001     -0.57519871     -1.82799350
C       1.66556184     -0.21465955     -0.93642212
C       0.72593990     -0.08682340      0.26292625
C      -0.72510609      0.09525767     -0.18140530
C      -1.66440959      0.22273758      1.01821977
C      -3.10354120      0.39906475      0.58698262
O      -3.49338222      0.43681298     -0.57141431
S      -4.24582658      0.55513418      1.91155521
H       5.31230887     -0.71305295     -1.03101356
H       1.36817817     -1.07630884     -1.54552946
H       1.60057573      0.68993776     -1.55227142
H       1.03218757      0.76594709      0.88159906
H       0.80933013     -0.98043032      0.89404260
H      -1.03118140     -0.75723293     -0.80081532
H      -0.80876083      0.98931211     -0.81192306
H      -1.37180891      1.08873526      1.62323962
H      -1.59317174     -0.67882985      1.63779399
H      -5.31691120      0.67648492      1.11547008
