63
CCCCN(CCCC)C(=S)SCSC(=S)N(CCCC)CCCC
C       2.90757613     -3.72329070      0.20794719
C       3.83543440     -2.83286042      1.02156569
C       3.59341111     -1.34011904      0.79805447
C       3.93433940     -0.86892957     -0.61890057
N       3.66873975      0.57601539     -0.78997295
C       4.81121441      1.45070288     -0.45646654
C       5.73498961      1.65409040     -1.66197831
C       6.99160845      2.45909241     -1.32921412
C       6.70728282      3.91804063     -1.00824894
C       2.45175316      1.10250954     -1.26859766
S       2.12073258      2.73886977     -1.51704598
S       1.18839235     -0.06781777     -1.67068258
C       0.10664886      0.18003473     -0.23662972
S      -1.13612614     -1.13937614     -0.17709589
C      -2.09838659     -0.58076370      1.19821298
S      -1.40292606     -0.65591809      2.73489735
N      -3.41107494     -0.15329275      0.91000394
C      -4.34507572      0.27548524      1.97361094
C      -5.46527101     -0.73617130      2.25983167
C      -4.96145892     -2.10411913      2.71989472
C      -6.11599775     -3.05632144      2.98964443
C      -3.95426059     -0.04083568     -0.46262929
C      -3.65674047      1.32775032     -1.08403223
C      -4.17657951      1.46161358     -2.51733156
C      -5.69600561      1.48709766     -2.60255522
H       1.86052353     -3.44476383      0.36193810
H       3.03104629     -4.76981912      0.50624415
H       3.12768128     -3.65495255     -0.86306612
H       4.87696897     -3.08614197      0.79721622
H       3.67899079     -3.05121845      2.08436629
H       2.55313924     -1.10419468      1.03872210
H       4.20241686     -0.77900407      1.51743796
H       4.99468936     -1.05452499     -0.82484476
H       3.38690053     -1.44303969     -1.36803476
H       4.45070637      2.41208946     -0.08082213
H       5.36497559      0.99251031      0.37087342
H       6.04694404      0.67453274     -2.04379645
H       5.19177009      2.13735792     -2.48243067
H       7.66582404      2.41812616     -2.19229869
H       7.52505787      1.99527649     -0.49200952
H       6.16467832      4.40119187     -1.82739303
H       6.11587469      4.02427766     -0.09472836
H       7.64686392      4.45782438     -0.85889418
H      -0.39492202      1.14714681     -0.31621941
H       0.70796078      0.17550075      0.67553871
H      -3.82058101      0.50088044      2.90540553
H      -4.79445586      1.22334279      1.65195427
H      -6.11666385     -0.31292053      3.03494171
H      -6.09047231     -0.86524853      1.36971081
H      -4.31587255     -2.54692576      1.95252080
H      -4.36722802     -1.99736681      3.63317466
H      -6.74219823     -3.17284157      2.10067082
H      -6.74489050     -2.68573040      3.80492315
H      -5.73737588     -4.04283617      3.27298294
H      -3.56794231     -0.84025941     -1.09918165
H      -5.03477810     -0.20033913     -0.41805267
H      -2.57723996      1.50645707     -1.09043835
H      -4.08878264      2.11985026     -0.46077509
H      -3.78343269      0.65036409     -3.13978108
H      -3.79162162      2.39702066     -2.94065499
H      -6.13055872      0.53236176     -2.29470315
H      -6.11094625      2.27806676     -1.96929325
H      -6.01526978      1.67646248     -3.63348517
