45
COc1cc(NS(=O)(=O)c2ccccc2)c2c(c1N)C(=O)c1ccccc1C2=O
C      -0.35234508      4.90088371      1.68191283
O      -1.22822991      4.12236831      0.87359304
C      -1.06858714      2.75691660      0.91518977
C      -0.29410692      2.08100169      1.85657301
C      -0.16783005      0.69148624      1.79875309
N       0.74115064      0.05545750      2.71473632
S       2.40795635      0.29680973      2.45853411
O       2.69024803      1.71587486      2.52471673
O       3.10669674     -0.64588567      3.30496567
C       2.62725561     -0.22388010      0.76971290
C       2.61663388      0.72495766     -0.25788067
C       2.75311996      0.30393097     -1.58020670
C       2.91490390     -1.05242098     -1.86864655
C       2.95003170     -1.99261407     -0.83729110
C       2.81269847     -1.58055319      0.48785479
C      -0.85341147     -0.04148822      0.81106095
C      -1.64538766      0.62829226     -0.12814628
C      -1.77323627      2.03478534     -0.07459492
N      -2.38806063      2.76037477     -1.12107406
C      -2.36937155     -0.15724631     -1.16280886
O      -3.24400484      0.35172008     -1.85708787
C      -2.05115274     -1.58519566     -1.34260098
C      -2.56834266     -2.28454569     -2.44053892
C      -2.28069472     -3.64077952     -2.60336864
C      -1.48374389     -4.30201360     -1.66947964
C      -0.97360377     -3.60785328     -0.57150168
C      -1.25781148     -2.24557963     -0.41183585
C      -0.72798253     -1.51647613      0.75101676
O      -0.17855324     -2.13161787      1.66059642
H       0.69722523      4.67566363      1.46459437
H      -0.57664681      4.76318666      2.74447537
H      -0.52387169      5.95416342      1.43995245
H       0.23681899      2.61644153      2.63841090
H       0.56872126     -0.95588502      2.83533529
H       2.49708423      1.78429504     -0.04017015
H       2.74033785      1.03341818     -2.38715072
H       3.02678973     -1.37653894     -2.90104932
H       3.08856993     -3.04658607     -1.06681923
H       2.83613809     -2.31727691      1.28856309
H      -2.69452894      3.68410084     -0.82304264
H      -3.10960590      2.22039490     -1.61017787
H      -3.19685234     -1.77695116     -3.17053935
H      -2.68300766     -4.18216171     -3.45705618
H      -1.26378643     -5.36020696     -1.79392701
H      -0.35762426     -4.13276724      0.15644733
