28
C=CC(C)CCC=C(C)C
C       2.94030428      1.95522126      0.44695201
C       2.11322982      1.53422893     -0.51865835
C       2.02800367      0.10367454     -0.99543199
C       2.43805730      0.03605058     -2.46895196
C       0.61283447     -0.47796495     -0.81302542
C       0.19686274     -0.59018347      0.65757102
C      -1.14597409     -1.25634135      0.79165355
C      -2.33277872     -0.66959916      1.04203764
C      -3.58431397     -1.49633501      1.18120558
C      -2.54914817      0.81106439      1.19215216
H       3.61602092      1.27607849      0.95736389
H       2.95675336      2.99837436      0.74763201
H       1.45576661      2.25746639     -0.99872459
H       2.73200187     -0.51867368     -0.42715001
H       2.42812590     -0.99930585     -2.82653327
H       3.45156785      0.42691583     -2.61342021
H       1.75888021      0.61728053     -3.10307904
H       0.57818992     -1.47598971     -1.27052716
H      -0.11762752      0.13778554     -1.35546257
H       0.93089983     -1.19602886      1.20350514
H       0.20191394      0.39090475      1.14087364
H      -1.11571677     -2.34065929      0.68386110
H      -4.03423831     -1.33841996      2.16687761
H      -4.31382423     -1.21278205      0.41552637
H      -3.38896835     -2.56846314      1.07335805
H      -3.34588278      1.14450032      0.51836499
H      -2.84640382      1.04564408      2.21935547
H      -1.66453596      1.40555651      0.95267435
