34
CCCCOC(=O)c1ccc(NC(C)=O)cc1
C       4.73586979     -1.07355046      0.74478743
C       4.05322451     -1.47911913     -0.55195381
C       4.06795686     -0.38023076     -1.61906755
C       3.32073376      0.89234806     -1.22695996
O       1.96241164      0.56143754     -0.91435602
C       1.20573878      1.61508132     -0.52144342
O       1.58249439      2.77301730     -0.43139268
C      -0.17990783      1.17560045     -0.20350115
C      -0.58862973     -0.15916168     -0.29723575
C      -1.90611342     -0.52124575      0.01535000
C      -2.83083292      0.44133927      0.42458462
N      -4.17108862      0.15735754      0.75641167
C      -4.80176140     -1.07413228      0.73454196
C      -6.24648705     -0.97380283      1.15570152
O      -4.31274389     -2.14986819      0.41082154
C      -2.41848353      1.77659509      0.51821914
C      -1.10424162      2.14238149      0.20695816
H       4.78434306     -1.92851645      1.42678081
H       4.18703837     -0.27560489      1.25351722
H       5.75818831     -0.72906487      0.56015172
H       3.02334721     -1.78815669     -0.33962473
H       4.56667541     -2.35974169     -0.95632796
H       3.60392845     -0.79276396     -2.52363612
H       5.10339478     -0.12674925     -1.87444541
H       3.79830117      1.37015249     -0.36433235
H       3.33597478      1.59137415     -2.07156206
H       0.10331954     -0.93703475     -0.61177789
H      -2.17461329     -1.56986723     -0.07210148
H      -4.73554941      0.94868889      1.03942430
H      -6.81892392     -0.45375073      0.38283179
H      -6.65957591     -1.97751094      1.29137752
H      -6.32815322     -0.43591421      2.10460470
H      -3.10977605      2.55407163      0.83374448
H      -0.80605900      3.18634153      0.28686345
