23
COCOC(=O)c1ccccc1O
C       4.34410714      1.30189098     -0.81141154
O       2.92872120      1.28631467     -0.93288994
C       2.35396279      0.23578051     -0.15923707
O       0.93780151      0.28410899     -0.33115765
C       0.28066822     -0.67447145      0.36223768
O       0.80602827     -1.51541258      1.07466222
C      -1.18774048     -0.57013294      0.14124160
C      -1.99340511     -1.51074861      0.80643545
C      -3.38258316     -1.49205436      0.66042186
C      -3.98253141     -0.53339091     -0.15182623
C      -3.19513575      0.40541921     -0.81731717
C      -1.80605763      0.38996709     -0.67387312
O      -1.14239020      1.35980437     -1.37551294
H       4.73302530      2.12194567     -1.42098007
H       4.63831116      1.47062459      0.22902462
H       4.77113920      0.36282513     -1.17655876
H       2.73654157     -0.72739447     -0.51732396
H       2.60281430      0.38788293      0.89775747
H      -1.54104095     -2.26757532      1.44566324
H      -3.99412800     -2.22546726      1.18065093
H      -5.06330947     -0.51493417     -0.26850812
H      -3.66348906      1.15423556     -1.45174029
H      -0.18130944      1.27078236     -1.21452811
