40
CCCCCCCC1(CC)C(=O)NC(=O)NC1=O
C       5.42835329      0.78622766      1.67093993
C       5.24708117      0.22997255      0.26710802
C       3.99291715     -0.63216508      0.10851312
C       2.69115380      0.15412370      0.27861662
C       1.47116038     -0.72884420      0.00556512
C       0.16647445      0.05498355      0.17770096
C      -1.05271795     -0.83793821     -0.09036560
C      -2.43777427     -0.12052523     -0.03367734
C      -2.63968764      0.59510385      1.32446017
C      -4.01353620      1.23925524      1.50954582
C      -3.47016141     -1.22734053     -0.21852330
O      -3.99904767     -1.83409094      0.70977058
N      -3.74007262     -1.58447258     -1.51142092
C      -3.58866003     -0.76088513     -2.58268063
O      -4.20664906     -0.94740164     -3.62556352
N      -2.79062937      0.32669479     -2.41635999
C      -2.50684729      0.86581222     -1.19255861
O      -2.28205450      2.06873295     -1.08658032
H       6.38714189      1.30930418      1.74633769
H       4.64085218      1.50199187      1.92396762
H       5.42079590     -0.01579422      2.41573896
H       5.22559658      1.05635298     -0.45281141
H       6.12246250     -0.38253076      0.02002705
H       4.01167213     -1.08247094     -0.89174772
H       4.02231508     -1.45971549      0.82779423
H       2.68578574      1.00949819     -0.40764877
H       2.62383181      0.55314083      1.29690620
H       1.47783041     -1.58614265      0.68967280
H       1.52785726     -1.12769140     -1.01456956
H       0.16813532      0.90940806     -0.50785469
H       0.12572863      0.45104915      1.19810306
H      -0.92241671     -1.31389471     -1.07215813
H      -1.04594857     -1.65994452      0.63925570
H      -2.48098424     -0.11560674      2.14558431
H      -1.89394896      1.38922990      1.44906463
H      -4.05697581      1.74251557      2.48124826
H      -4.81872632      0.50000975      1.48761829
H      -4.21663502      1.98923449      0.73991268
H      -4.43610096     -2.30954572     -1.62441618
H      -2.83757108      0.99435920     -3.17503466
