49
CC1=NC(c2cccc(-c3cccnc3)c2)(C2CCCCC2)N=C1N
C      -1.37203799      3.83967159      2.41770648
C      -1.09960244      2.64776495      1.57636903
N      -1.24314607      1.41766650      1.93806070
C      -0.81417836      0.64769176      0.72611874
C       0.41933758     -0.19477430      1.09297652
C       0.45487280     -0.91112240      2.30005412
C       1.56204161     -1.68678027      2.63939552
C       2.65420879     -1.76234525      1.77458965
C       2.65958477     -1.06626746      0.55618313
C       3.80564993     -1.14932088     -0.36070915
C       3.64758656     -1.46825657     -1.71562537
C       4.75653501     -1.54065129     -2.55710572
C       6.00658196     -1.28921653     -2.01896837
N       6.21376018     -0.97587753     -0.72372278
C       5.11346714     -0.91382704      0.06734698
C       1.53165708     -0.28881182      0.23441251
C      -2.00766289     -0.26876832      0.27937863
C      -3.30597294      0.53029863      0.01714770
C      -4.46457240     -0.37417909     -0.39854003
C      -4.10931378     -1.21801463     -1.61552421
C      -2.83810269     -2.02197662     -1.37716485
C      -1.67105524     -1.12818086     -0.96062806
N      -0.50634043      1.61453130     -0.37348631
C      -0.64689219      2.77623721      0.16532851
N      -0.42230435      3.95554439     -0.47633384
H      -2.15488531      4.44552535      1.95410093
H      -0.46146691      4.43613609      2.51671939
H      -1.70376435      3.53009046      3.41238418
H      -0.38880928     -0.86006389      2.98632396
H       1.57180159     -2.23538321      3.57754818
H       3.49999256     -2.38688980      2.05543715
H       2.65890497     -1.67395184     -2.11997047
H       4.64523341     -1.79106362     -3.60593850
H       6.90073973     -1.33510438     -2.63381234
H       5.32333314     -0.64746275      1.10061179
H       1.51855892      0.25879892     -0.70711421
H      -2.22659593     -0.96109604      1.10598699
H      -3.60591006      1.07879625      0.91702699
H      -3.13952068      1.27441373     -0.77126719
H      -4.73346608     -1.03082242      0.43802000
H      -5.34659889      0.23738226     -0.62000821
H      -4.93740647     -1.89628327     -1.84981682
H      -3.97291061     -0.56598870     -2.48700142
H      -3.01938189     -2.77101084     -0.59643194
H      -2.57339127     -2.56997255     -2.28859363
H      -0.80833571     -1.77245744     -0.76053028
H      -1.39908545     -0.48177792     -1.80415195
H       0.08983331      3.82787567     -1.34424408
H      -0.06097040      4.71927446      0.08245779
