30
S=C(N=Nc1ccccc1)NNc1ccccc1
S       0.19729107      3.69806936     -2.69181367
C      -0.01720602      2.13872900     -2.09684684
N       0.99156930      1.31486373     -1.64368561
N       1.11633441      1.41593386     -0.40112242
C       2.07528254      0.50878854      0.08232726
C       1.69758500     -0.41663202      1.06145149
C       2.62518103     -1.32211844      1.58094799
C       3.94434424     -1.30170266      1.13050264
C       4.33746748     -0.37465071      0.16621397
C       3.40747986      0.52966410     -0.35160660
N      -1.29923632      1.61049384     -2.11352734
N      -1.50968945      0.23296947     -1.92058078
C      -2.11281986     -0.09274781     -0.67656607
C      -2.94422991      0.78819931      0.02784007
C      -3.56555588      0.39297069      1.21673537
C      -3.38804704     -0.89977419      1.70278134
C      -2.59955353     -1.80174215      0.99439795
C      -1.97878669     -1.40359751     -0.19260813
H       0.67116580     -0.42837404      1.42085984
H       2.31878698     -2.03780732      2.33940674
H       4.66842050     -2.00408867      1.53611083
H       5.36765085     -0.35137204     -0.17977059
H       3.72084646      1.25770092     -1.09557967
H      -2.03359389      2.11508684     -2.59936936
H      -0.64657337     -0.30715444     -2.03935163
H      -3.11721605      1.79746666     -0.33345395
H      -4.19446106      1.09571537      1.75721062
H      -3.87506348     -1.20678169      2.62458302
H      -2.47411757     -2.81804381      1.35833058
H      -1.38325538     -2.13006417     -0.74011818
