22
CCCCOCCO
C       3.68492690      0.35786122      0.15867223
C       2.46365597     -0.11733218     -0.61200505
C       1.17589502      0.14589144      0.16328151
C      -0.05148237     -0.32888632     -0.60553638
O      -1.20838724     -0.04807705      0.18241713
C      -2.40910535     -0.46892151     -0.47816690
C      -3.58746040     -0.12417506      0.42589145
O      -3.62526945      1.28471788      0.64884409
H       4.59582480      0.15961009     -0.41480757
H       3.76873369     -0.16033290      1.11930030
H       3.63261143      1.43409733      0.35189432
H       2.56253249     -1.18968755     -0.81680378
H       2.42718325      0.39589638     -1.57995735
H       1.07568691      1.21663335      0.38119611
H       1.20998838     -0.35631577      1.13828128
H       0.01073982     -1.40714423     -0.79194259
H      -0.12555948      0.19706734     -1.56426201
H      -2.37505973     -1.54788190     -0.66150038
H      -2.49614344      0.06900815     -1.42870986
H      -4.53365004     -0.42857080     -0.02962027
H      -3.48662236     -0.61014236      1.40136844
H      -2.70903880      1.52668445      0.88912786
