49
CCCCCCCCCC(=O)Oc1ccc(NC(C)=O)cc1
C      -6.84590419      2.51542482     -1.10167188
C      -6.62208112      1.06387591     -1.49516632
C      -5.64632459      0.36955564     -0.54396960
C      -5.42382815     -1.08979671     -0.94736653
C      -4.54531805     -1.86713835      0.03727339
C      -3.09857360     -1.36846584      0.08704942
C      -2.24300457     -2.24798735      1.00295083
C      -0.76322144     -1.85732179      1.00732050
C      -0.50398618     -0.47486347      1.59646342
C       0.97736464     -0.22792676      1.74366400
O       1.58039327     -0.29680208      2.80629189
O       1.51424494      0.06807395      0.49371738
C       2.89230761      0.31183141      0.44231099
C       3.63923694     -0.44303944     -0.45678350
C       5.01177307     -0.20761639     -0.58595579
C       5.63479283      0.78751521      0.17212969
N       7.01187538      1.08370276      0.10461217
C       7.96824596      0.47187605     -0.68569958
C       9.34218784      1.05589453     -0.46848101
O       7.79774638     -0.45260084     -1.47207416
C       4.86037204      1.55210016      1.05787105
C       3.48789171      1.32387469      1.18863214
H      -7.54747430      2.99195194     -1.79353414
H      -5.90739413      3.07833843     -1.12824167
H      -7.26224813      2.58832945     -0.09177034
H      -7.58418981      0.53841645     -1.49125713
H      -6.23460118      1.02446175     -2.51993924
H      -6.03806708      0.41284961      0.47946722
H      -4.69404437      0.91146300     -0.55111422
H      -6.39546639     -1.59563358     -1.00958109
H      -4.98068468     -1.13389278     -1.94973359
H      -4.55005115     -2.92254707     -0.26253952
H      -4.98752834     -1.82211765      1.04002210
H      -3.07892072     -0.33604328      0.44977278
H      -2.67459168     -1.36958782     -0.92416444
H      -2.63666645     -2.21041774      2.02597958
H      -2.31964935     -3.29151219      0.67323708
H      -0.36531968     -1.90896072     -0.01385685
H      -0.20905120     -2.60592062      1.58806492
H      -0.95975862     -0.38484539      2.58935779
H      -0.92978861      0.32343884      0.97928765
H       3.16561292     -1.21498169     -1.05616738
H       5.56590215     -0.82036949     -1.29002863
H       7.33395611      1.82313865      0.71597265
H       9.29071584      2.14399080     -0.36850382
H       9.78236611      0.62235806      0.43325370
H       9.97659289      0.82388111     -1.32900018
H       5.31218500      2.33643722      1.65938134
H       2.90197416      1.92760856      1.87509224
