23
O=C1NC(=O)C2(CCCC2)C(=O)N1
O       4.00860293      0.76343913     -0.33851676
C       2.80431218      0.56753984     -0.21245598
N       1.94156818      0.77019934     -1.24474739
C       0.75100381      0.10477363     -1.36412709
O       0.27843370     -0.13237717     -2.47167937
C       0.07527953     -0.24420411     -0.04809103
C      -1.03899689     -1.29508705     -0.23550747
C      -2.33631470     -0.49819939     -0.25934778
C      -2.08376647      0.59455535      0.76007485
C      -0.64650062      1.02277674      0.48389853
C       1.12325460     -0.67661138      0.96331727
O       0.96930912     -1.56958455      1.79060770
N       2.28755398      0.04393357      0.93209403
H       2.39253802      0.99595070     -2.12187501
H      -1.07850676     -2.00400190      0.59968667
H      -0.92892699     -1.89197536     -1.14690750
H      -3.20462827     -1.11261130     -0.00490120
H      -2.50055367     -0.06501277     -1.25292207
H      -2.16648326      0.19118686      1.77638543
H      -2.78869491      1.42547805      0.66529594
H      -0.19393772      1.43500669      1.39275229
H      -0.65075594      1.82453121     -0.26552796
H       2.98621016     -0.24970613      1.60249390
