66
CCCCCCCCCCCCCCCCCC[NH+](C)C.[Cl-]
C       9.04343768      0.81182068     -2.91688321
C       7.72518455      0.41269421     -2.27154524
C       7.96206591     -0.38907498     -0.99240235
C       6.67762233     -0.92284668     -0.35525007
C       5.74293538      0.17941804      0.14782053
C       4.57541511     -0.41028275      0.94408034
C       3.61527466      0.68346267      1.41721217
C       2.56259779      0.17832953      2.40728806
C       1.65796678     -0.94955853      1.90598937
C       0.87516882     -0.66258330      0.62182875
C      -0.07564444      0.53149803      0.74202811
C      -0.90968557      0.77027791     -0.52265531
C      -1.88153600     -0.35298498     -0.90005943
C      -2.90456766     -0.73238773      0.17407442
C      -3.83629124      0.39870103      0.62093325
C      -4.70518535      1.01202272     -0.48119714
C      -5.61400826      0.03422150     -1.23442339
C      -6.54531220     -0.82038850     -0.37345786
N      -7.44458805      0.00659940      0.51574559
C      -8.46559082      0.81001638     -0.24014826
C      -8.10078167     -0.84818772      1.56770194
Cl      0.00000000      0.00000000      0.00000000
H       9.63907504     -0.07009981     -3.17040159
H       8.86040575      1.37506505     -3.83840819
H       9.63611131      1.44267993     -2.24354907
H       7.15079723      1.31829100     -2.05339651
H       7.14151021     -0.18149947     -2.98449147
H       8.60879515     -1.24426452     -1.22193474
H       8.50221234      0.22709054     -0.26359845
H       6.14571940     -1.55946938     -1.07308427
H       6.95940335     -1.56736963      0.48614040
H       6.30210967      0.87591467      0.78491924
H       5.35078360      0.75428436     -0.69852913
H       4.03852645     -1.13270119      0.31781973
H       4.96686597     -0.95792044      1.81013289
H       4.18867198      1.47871373      1.91246851
H       3.12694777      1.14769422      0.55249234
H       1.94797202      1.02622924      2.72620292
H       3.07443209     -0.17389132      3.30950190
H       0.94555334     -1.19833362      2.70397374
H       2.26056345     -1.85295687      1.74901733
H       0.30367988     -1.56491786      0.38315653
H       1.56676293     -0.50470754     -0.21262553
H      -0.73419494      0.40266079      1.60887031
H       0.50801886      1.43947644      0.93084961
H      -1.46940163      1.70567241     -0.40087274
H      -0.23097461      0.93398095     -1.37108622
H      -2.40616347     -0.06098412     -1.81442473
H      -1.31204469     -1.24873202     -1.16408350
H      -2.37845907     -1.12242422      1.05330028
H      -3.50479072     -1.57165403     -0.19948406
H      -3.24576691      1.20239387      1.07798484
H      -4.48158961      0.01910551      1.42022602
H      -5.31756205      1.80627172     -0.03850657
H      -4.06035605      1.51676005     -1.20750155
H      -6.20324635      0.60179147     -1.96492045
H      -4.99086557     -0.64334971     -1.83220219
H      -5.96398684     -1.48031864      0.27873932
H      -7.19117708     -1.44575227     -1.00095076
H      -6.85518088      0.67603528      1.02644124
H      -9.07562875      0.13119207     -0.83774187
H      -7.93942913      1.52935379     -0.86813622
H      -9.08123279      1.34876496      0.48437415
H      -8.72013256     -0.20288830      2.19749864
H      -7.31119242     -1.30408383      2.17022267
H      -8.70601943     -1.61187022      1.07167620
