16
Nc1cc(Cl)ccc1Cl.[Cl-].[H+]
N       2.26058189     -0.41801621      0.05331897
C       0.85984114     -0.18190869      0.02371469
C      -0.07344978     -1.18563355      0.22086060
C      -1.43808575     -0.94192903      0.18947153
Cl     -2.58249340     -2.25120441      0.44588890
C      -1.83619659      0.35621747     -0.04888290
C      -0.95311072      1.38751638     -0.25066100
C       0.41359837      1.09532172     -0.21023460
Cl      1.58823698      2.36893895     -0.46030001
Cl      0.00000000      0.00000000      0.00000000
H       0.00000000      0.00000000      0.00000000
H       2.78520651     -0.81747219     -0.75349941
H       2.85215615     -0.19995665      0.90147661
H       0.30332769     -2.17282046      0.40135120
H      -2.90921785      0.54219233     -0.07250529
H      -1.27039463      2.41875435     -0.43999929
