23
C1COCCN1.NS(=O)(=O)O
C      -1.18356461     -0.60737808     -0.21830883
C      -1.12359920      0.92266354     -0.33943795
O       0.16980336      1.35491054     -0.78533795
C       1.17887899      0.90670800      0.13086863
C       1.16617984     -0.62366126      0.26165413
N      -0.14915927     -1.12817756      0.69196039
N       0.91893065     -0.64905417      0.36589752
S      -0.21100941      0.48191332     -0.09529126
O       0.05507559      0.79813936     -1.47422790
O      -0.24622276      1.46574149      0.95394755
O      -1.56911160     -0.36513998     -0.06205715
H      -1.04424244     -1.05803853     -1.20861638
H      -2.16984330     -0.90907129      0.14872926
H      -1.35678900      1.40719692      0.61636730
H      -1.85835470      1.26560970     -1.07476286
H       1.02500473      1.39069315      1.10287403
H       2.14762766      1.23784785     -0.25649901
H       1.92542162     -0.93744991      0.98523559
H       1.42037728     -1.07511946     -0.70518833
H      -0.14774096     -2.14673360      0.65046199
H       1.80731509     -0.44875164     -0.09313274
H       1.00449245     -0.62958902      1.38282767
H      -1.75947002     -0.65325935     -0.97796368
