17
Cc1nnc(N)nc1C
C      -2.05710191     -1.22343309     -0.05710257
C      -0.62898160     -0.80669540      0.07370596
N       0.27557876     -1.77357869      0.31942442
N       1.58658473     -1.43061629      0.45339821
C       1.95367110     -0.14101866      0.34035608
N       3.29233197      0.19166935      0.44905700
N       1.09958761      0.85283600      0.07675326
C      -0.20435966      0.50794530     -0.04698213
C      -1.16372025      1.62591245     -0.32326449
H      -2.44066423     -0.96986050     -1.05008071
H      -2.16047975     -2.30551279      0.07562309
H      -2.67063005     -0.73277233      0.70464610
H       3.46432692      1.05738355     -0.04301763
H       3.87043246     -0.60175870      0.20972077
H      -0.63717743      2.58432119     -0.38250677
H      -1.90527791      1.70038421      0.47802694
H      -1.67412077      1.46479441     -1.27775754
