20
CC(S(C)(=O)=O)S(C)(=O)=O
C       0.67978911      1.61012270      0.79837373
C      -0.04774974      0.29698400      0.53913128
S      -1.72583297      0.61692190      0.02957506
C      -2.40107348     -0.88704831     -0.64115735
O      -1.71738189      1.61075402     -1.02695594
O      -2.46974382      0.88992591      1.25008158
S       0.80250688     -0.76083679     -0.59598102
C       2.48806761     -0.78278487     -0.03022580
O       0.29403183     -2.10614914     -0.39707116
O       0.80230484     -0.16487913     -1.91490395
H       1.64046741      1.44333108      1.29422854
H       0.09018655      2.26579125      1.44816573
H       0.87410186      2.15134914     -0.13371148
H      -0.11909126     -0.26403109      1.47839884
H      -3.46509626     -0.71721021     -0.82447731
H      -2.28468119     -1.68746191      0.09095640
H      -1.91154410     -1.12415517     -1.58586063
H       2.94070242      0.19551233     -0.19761725
H       3.02703583     -1.53652347     -0.60895305
H       2.50300037     -1.04961221      1.02800379
