21
CC(C)C(C)(C)O
C      -1.42331353      0.22743400     -1.15879314
C      -0.70722119      0.49105478      0.16959717
C      -1.53646642     -0.10388346      1.31714129
C       0.77724234      0.02020360      0.19131103
C       1.61796804      0.73325986     -0.87595305
C       0.94505641     -1.49468786      0.03996452
O       1.34345633      0.36690122      1.46361091
H      -0.92024241      0.72492456     -1.99281074
H      -1.48506975     -0.84222231     -1.38131357
H      -2.44743099      0.61596289     -1.12516661
H      -0.70839129      1.57827805      0.33183661
H      -1.66777598     -1.18461874      1.20441132
H      -1.07108341      0.08695764      2.28912421
H      -2.53487829      0.34715446      1.34015654
H       1.50845225      1.82078826     -0.79639592
H       1.34385867      0.42894189     -1.89044541
H       2.68450425      0.52142643     -0.73501462
H       0.55805113     -1.85957265     -0.91585683
H       0.44862115     -2.03688740      0.85130138
H       2.00430015     -1.77218859      0.10275798
H       1.27036253      1.33077336      1.57053693
