27
Nc1c([N+](=O)[O-])ccc(Oc2ccccc2)c1Cl
N       3.53328087     -1.16183273      1.58557140
C       2.64301425     -0.39350831      0.79893554
C       2.84764265     -0.17465762     -0.58002519
N       4.09717762     -0.58089736     -1.22266337
O       4.03681346     -0.95052743     -2.40426092
O       5.14149464     -0.50396247     -0.55673075
C       1.88504717      0.46126727     -1.38441071
C       0.67418888      0.86217706     -0.82607742
C       0.41492048      0.60468288      0.52315363
O      -0.76926992      1.01934009      1.09527577
C      -1.93245340      0.57150539      0.50964299
C      -2.14068371     -0.76683469      0.16636031
C      -3.35640634     -1.15483707     -0.39874442
C      -4.36406258     -0.21184558     -0.60512032
C      -4.16243899      1.11917239     -0.23877081
C      -2.94843669      1.51014080      0.32647779
C       1.38663539     -0.01488605      1.32719714
Cl      1.04407912     -0.31069985      3.00636579
H       3.40591288     -1.02309789      2.58783671
H       4.51485341     -1.08069468      1.30719746
H       2.06971835      0.64572451     -2.44172295
H      -0.06554946      1.36655768     -1.44394913
H      -1.37400505     -1.51488685      0.34575706
H      -3.52196175     -2.19463478     -0.66938561
H      -5.31192300     -0.51720518     -1.04160402
H      -4.95312718      1.84999987     -0.38768476
H      -2.79446108      2.54444060      0.62137877
