18
C=O.Nc1ccccc1
C      -0.01213158      0.00212245      0.00063987
O       1.19255289     -0.20863987     -0.06289882
N       2.28733751     -0.34072914      0.20502406
C       0.91277069     -0.14521406      0.02316018
C       0.01837339     -1.19937317      0.22642814
C      -1.36140955     -0.98756596      0.16209983
C      -1.85976928      0.29308966     -0.06485117
C      -0.97823769      1.36187458     -0.20820031
C       0.40058866      1.14420193     -0.14294746
H      -0.75007907     -0.81470535      0.04499867
H      -0.43034225      1.02122278      0.01726028
H       2.59394582     -1.28702266      0.00346569
H       2.86214040      0.35742772     -0.25571924
H       0.38956012     -2.19858345      0.43682735
H      -2.04461552     -1.82048569      0.30391780
H      -2.93239404      0.46105088     -0.10909846
H      -1.36155175      2.36775945     -0.35620003
H       1.07326124      1.99356989     -0.22390638
