11
CC(Cl)C(=O)O
C      -1.27390997     -0.25403679     -0.35271143
C      -0.16220067      0.69757891      0.05451369
Cl     -0.73817002      1.77553816      1.35723108
C       1.06116459     -0.06811545      0.51940697
O       1.49509417     -0.19623043      1.65200362
O       1.70596394     -0.66903796     -0.50776291
H      -0.95311429     -0.89743789     -1.17922665
H      -1.56315137     -0.91048698      0.47585554
H      -2.16272903      0.29375963     -0.68332727
H       0.12658418      1.34627511     -0.77822856
H       2.46446845     -1.11780629     -0.07537757
