26
N[C@@H](CSSC[C@H](N)C(=O)O)C(=O)O
N      -2.92975778     -2.21797247     -1.02270366
C      -2.07914074     -1.93868895      0.18163744
C      -1.63421269     -0.47489880      0.30493389
S      -0.64314220      0.03633194     -1.14699031
S      -0.33243158      2.03479551     -0.77078411
C       1.12677499      2.05175970      0.34089369
C       2.45826956      1.96170272     -0.41811420
N       2.66899488      0.65793931     -1.12738936
C       3.58940221      2.13660959      0.60317889
O       3.79720747      3.14907348      1.25187524
O       4.33029525      1.00423608      0.72343527
C      -2.88070676     -2.32825401      1.43144047
O      -2.61453595     -1.99282130      2.57394042
O      -3.93352689     -3.12540336      1.11057826
H      -2.31679719     -2.14402575     -1.84302976
H      -3.57620730     -1.42907300     -1.14506130
H      -1.21381429     -2.61144124      0.14623114
H      -1.02453580     -0.34308874      1.20545520
H      -2.51006251      0.17899781      0.38941714
H       1.08441061      2.99967705      0.88989246
H       1.03318926      1.25858317      1.09175211
H       2.54714618      2.76946394     -1.15402276
H       1.76666662      0.39987310     -1.54886845
H       3.27122363      0.84162147     -1.93838010
H       3.92741180      0.34975135      0.09772621
H      -3.91212080     -3.22474862      0.12486484
