25
COc1ccc(CCC(=O)O)cc1
C      -4.56619775      0.47622648      0.39276825
O      -3.59364825      1.05554607     -0.46746223
C      -2.32648432      0.54540484     -0.39893285
C      -1.41098142      1.13659497     -1.27193935
C      -0.08058961      0.71235764     -1.30662507
C       0.35335014     -0.31770862     -0.46555158
C       1.79347052     -0.76537009     -0.48250819
C       2.64310774      0.04439734      0.49253037
C       4.07302537     -0.41354891      0.46831141
O       4.55437457     -1.31057183     -0.20159453
O       4.84411423      0.29906215      1.31320976
C      -0.56479363     -0.90557228      0.41315819
C      -1.89730034     -0.47834427      0.44515228
H      -4.30246535      0.62697576      1.44480908
H      -4.70958814     -0.58599209      0.16857602
H      -5.51778577      0.98552400      0.21233020
H      -1.73770260      1.93624382     -1.93222217
H       0.61049981      1.19201517     -1.99582371
H       1.84670155     -1.83474068     -0.23951400
H       2.19141855     -0.67646768     -1.50192043
H       2.61754405      1.10716901      0.22561402
H       2.26253567     -0.07052274      1.51395308
H       5.73845484     -0.08806158      1.20718101
H      -0.24987023     -1.70447542      1.08123234
H      -2.57118963     -0.96614108      1.14108365
