38
CCCCOC(=O)CCC(=O)OCCCC
C       6.58903861      0.20976870     -0.34132125
C       5.24814763     -0.40099475     -0.71579891
C       4.11768007      0.16436796      0.13948358
C       2.77090838     -0.44538354     -0.23684395
O       1.72693170      0.14728348      0.55231904
C       1.47579906     -0.44963565      1.74768565
O       2.10971575     -1.39090849      2.20850084
C       0.36394112      0.24017782      2.50663783
C      -0.57501046      1.08207040      1.64978418
C      -1.35061501      0.23754189      0.66855676
O      -1.34730973     -0.98411081      0.63598493
O      -2.06930850      1.04804595     -0.15762901
C      -2.86182582      0.38103159     -1.15292451
C      -4.22891406      0.02311063     -0.57793369
C      -5.12098502     -0.64048699     -1.62341731
C      -6.48361563     -0.99421316     -1.04950059
H       6.83535212      0.00389550      0.70524671
H       7.38408805     -0.20910507     -0.96610241
H       6.57978831      1.29489783     -0.48539786
H       5.04735234     -0.20524908     -1.77552175
H       5.30101299     -1.48878043     -0.59087612
H       4.32298770     -0.01704711      1.20139406
H       4.06462495      1.25451609      0.02728248
H       2.77331457     -1.53719273     -0.13422620
H       2.53830086     -0.22422891     -1.28426339
H       0.83609512      0.88221166      3.25843448
H      -0.20972822     -0.53533904      3.02767575
H      -0.01578721      1.84503672      1.09730010
H      -1.29834152      1.58524777      2.30114120
H      -2.97715958      1.08222553     -1.98665197
H      -2.34077828     -0.50005240     -1.54636591
H      -4.70732645      0.93163271     -0.19126345
H      -4.10543869     -0.64061821      0.28633198
H      -5.25476683      0.03101682     -2.47947250
H      -4.64079691     -1.55207088     -1.99773756
H      -6.38719826     -1.69119297     -0.21088107
H      -7.00419015     -0.09902148     -0.69456128
H      -7.10598300     -1.46800058     -1.81506884
