25
Cc1[nH]c(=O)c(C#N)cc1-c1ccncc1
C       0.18639788      2.22067230     -0.91200740
C       0.89712050      1.01220180     -0.36121541
N       2.27378878      1.12636452     -0.31638628
C       3.13660993      0.15966904      0.14395449
O       4.34889362      0.34060688      0.14995498
C       2.50770506     -1.09730003      0.62506664
C       3.32282872     -2.14820531      1.11726767
N       3.93558535     -3.04330931      1.53103031
C       1.16868645     -1.20161634      0.57866363
C       0.31627113     -0.12951846      0.07513916
C      -1.14865357     -0.29651306      0.04638344
C      -1.92272484      0.07369606      1.14708948
C      -3.29236522     -0.11438411      1.07569770
N      -3.92203173     -0.63952028      0.00312335
C      -3.15008536     -0.99731218     -1.04508822
C      -1.77385971     -0.85009734     -1.07185482
H       0.41245024      3.10061619     -0.29984216
H       0.52219014      2.41960012     -1.93563742
H      -0.90096825      2.11481415     -0.94088364
H       2.72053244      1.97734058     -0.64069595
H       0.67280445     -2.10745601      0.92251713
H      -1.47663526      0.49975721      2.03923774
H      -3.93988997      0.15933162      1.90408216
H      -3.68531073     -1.42047673     -1.89060225
H      -1.20934007     -1.15896133     -1.94499433
