34
C=CCOC(=O)CCC1CCCCC1
C       6.02676993     -1.38184451     -0.12957021
C       4.74719871     -1.48071896      0.25466082
C       3.87559016     -0.31999664      0.62444390
O       2.73855420     -0.35129816     -0.24146409
C       1.84616177      0.65032148     -0.01079286
O       1.97002821      1.52014474      0.83979522
C       0.70124989      0.54833187     -0.99140349
C      -0.59230921      1.17856991     -0.46998634
C      -1.20350592      0.48791131      0.77276874
C      -1.61569435     -0.97482309      0.53443957
C      -2.83578445     -1.10758306     -0.37447949
C      -4.01738912     -0.29966015      0.15424664
C      -3.64753558      1.15882695      0.40626743
C      -2.41307838      1.28502260      1.29842756
H       6.59986052     -2.26844144     -0.38401362
H       6.52971524     -0.42256753     -0.20409855
H       4.28759800     -2.46458624      0.31197286
H       3.55238134     -0.43284367      1.66567766
H       4.40883415      0.63066109      0.50582336
H       1.01425425      1.06815738     -1.90436242
H       0.53412505     -0.50068215     -1.25369785
H      -0.39552724      2.23074000     -0.22551797
H      -1.31659254      1.18877479     -1.29216849
H      -0.44524597      0.49345815      1.56597043
H      -1.85496045     -1.43092702      1.50460714
H      -0.78495361     -1.56013704      0.12820015
H      -3.12179038     -2.16315114     -0.44924623
H      -2.58609792     -0.77775680     -1.38946632
H      -4.37184611     -0.74887790      1.09043828
H      -4.84912656     -0.35233871     -0.55726977
H      -3.47107603      1.66365119     -0.55035704
H      -4.49269662      1.67263700      0.87867217
H      -2.66705489      0.91793182      2.30161069
H      -2.15005609      2.34309394      1.41505611
