28
CN=C(NCC1CCOC1)N[N+](=O)[O-]
C       3.54695158      2.02888992      0.12061804
N       2.17942875      1.53936036      0.12601852
C       1.92177325      0.30107975      0.40992803
N       0.60862089     -0.09417172      0.42810595
C      -0.46008066      0.72946516     -0.11752626
C      -1.81707714      0.10691427      0.18456944
C      -2.11958168     -1.17422089     -0.56728371
C      -3.62956226     -1.23593256     -0.47562281
O      -4.09834829      0.11969014     -0.45821153
C      -2.97324996      0.98805147     -0.25680965
N       2.86843367     -0.61701589      0.77093698
N       2.72715766     -1.94782853      0.72723870
O       1.63890023     -2.44614510      0.42652836
O       3.76706804     -2.55323212      0.99119609
H       3.98211006      2.00529629      1.12480688
H       4.17698430      1.46024138     -0.57111505
H       3.55241182      3.07049930     -0.21527637
H       0.45821225     -1.09640149      0.31497362
H      -0.31957581      0.84378564     -1.19898307
H      -0.42190085      1.72885383      0.33241558
H      -1.90881325     -0.08975146      1.26178396
H      -1.81330426     -1.08795322     -1.61689707
H      -1.63982965     -2.06070111     -0.14333754
H      -3.95137797     -1.71272817      0.45637193
H      -4.08013520     -1.77157341     -1.31582377
H      -2.77040820      1.49264425     -1.20805613
H      -3.22900746      1.74590562      0.48966156
H       3.80420015     -0.27302170      0.88641113
