59
CCN(CC)CC#CCOC(=O)C(O)(c1ccccc1)C1CCCCC1.Cl
C       6.14096791      1.22731154     -1.75591376
C       4.89189182      1.26012667     -0.91695108
N       5.07932870      0.65715492      0.33284199
C       5.20179453     -0.73568414      0.45881964
C       6.48162578     -1.27616196     -0.10593332
C       4.64517267      1.35886387      1.49349790
C       3.19828459      1.43697901      1.55428445
C       1.99321497      1.48230339      1.64398882
C       0.51696902      1.49296595      1.79853318
O      -0.04678299      0.83546387      0.70522489
C      -1.44421139      0.57183120      0.63152694
O      -2.08108662      0.98352675      1.62479639
C      -1.99199684     -0.13715343     -0.54378791
O      -1.07534026      0.03988453     -1.60351185
C      -1.92904524     -1.63361960     -0.25695034
C      -1.53939430     -2.52698514     -1.21047535
C      -1.46606214     -3.89249106     -0.93884209
C      -1.79956715     -4.32908505      0.32854812
C      -2.18606800     -3.42391665      1.27270744
C      -2.25684430     -2.06546698      0.98938565
C      -3.33782942      0.24906519     -1.01618320
C      -3.49892171      1.69327372     -1.38467805
C      -5.00996023      1.96600353     -1.49796690
C      -5.49581711      2.00124219     -0.06066667
C      -5.21662574      0.68924027      0.60569341
C      -4.52603218     -0.27739404     -0.31444175
Cl      0.68488100      0.00000000      0.00000000
H       7.04216836      1.53856563     -1.17948589
H       6.35392316      0.25580461     -2.21846643
H       6.07948733      1.97715975     -2.59574724
H       4.65278535      2.34228236     -0.75912691
H       4.07085491      0.78020866     -1.53704801
H       5.09080557     -1.07148103      1.54170273
H       4.30852853     -1.25662703     -0.01423955
H       6.86979470     -2.10126164      0.55783689
H       7.29519040     -0.54789257     -0.18544928
H       6.24605596     -1.77119106     -1.08450010
H       5.07641155      0.79682181      2.37476735
H       5.11269113      2.37806321      1.45093885
H       0.18578556      0.98766615      2.72089646
H       0.13292548      2.53185418      1.84097410
H      -0.23567112      0.46189869     -1.29145505
H      -1.27398967     -2.22578617     -2.20853046
H      -1.15772934     -4.61870840     -1.67825524
H      -1.76332833     -5.39064825      0.60752837
H      -2.44272117     -3.80155999      2.27559464
H      -2.57692528     -1.43970736      1.81190517
H      -3.44865633     -0.24768752     -2.09625702
H      -3.13937252      2.40783331     -0.62767531
H      -3.02193883      1.94176915     -2.36167162
H      -5.50908020      1.19053641     -2.08566666
H      -5.08970281      2.98964351     -1.95898619
H      -6.54661885      2.32446150      0.02774219
H      -4.85250344      2.76194559      0.44422753
H      -4.75451937      0.76836740      1.60895998
H      -6.23508088      0.20727665      0.82527945
H      -5.34991512     -0.54940156     -1.06773201
H      -4.36731905     -1.26748454      0.19091517
H      -0.68488100      0.00000000      0.00000000
