16
CC=CC=CC(=O)O
C      -3.26209626      0.06856364      0.15180617
C      -1.89256816      0.07394904     -0.44630182
C      -0.76349798     -0.00032808      0.27372709
C       0.54976990      0.00675918     -0.32944758
C       1.67940680     -0.06739015      0.38841799
C       2.97996458     -0.05498449     -0.29193486
O       3.19357655      0.01730155     -1.48629845
O       3.97165080     -0.13766496      0.60929661
H      -3.23754913     -0.00289043      1.24376892
H      -3.78987318      0.98830545     -0.11826506
H      -3.83307569     -0.78186031     -0.23312705
H      -1.84822659      0.14326983     -1.53129512
H      -0.82010464     -0.06933853      1.35855033
H       0.60246087      0.07595530     -1.41567878
H       1.68574768     -0.13764160      1.46871673
H       4.78441444     -0.12200544      0.06225951
