19
N#CC(C#N)=NNc1ccccc1
N       4.00690215      1.97346652      0.76865009
C       3.59009171      0.92292777      0.49565676
C       3.05268345     -0.37154755      0.18953954
C       3.86281315     -1.54438958      0.02785211
N       4.54523244     -2.47802537     -0.09399384
N       1.77696790     -0.56339855      0.03894112
N       0.91764290      0.49317888      0.16956268
C      -0.46554929      0.24068106      0.00544335
C      -1.38614433      1.25048486      0.32292157
C      -2.75664399      1.06393429      0.11989962
C      -3.22424482     -0.12901367     -0.42493931
C      -2.32157889     -1.12940159     -0.77583608
C      -0.95162515     -0.93961965     -0.57220035
H       1.08784690      1.21895670      0.87058789
H      -1.04487417      2.19830202      0.73103977
H      -3.45680259      1.85353986      0.37997303
H      -4.28904443     -0.27523132     -0.58620496
H      -2.67914091     -2.05696942     -1.21509919
H      -0.26453203     -1.72787526     -0.86841482
