51
CCCCCCCCCCCCC(O)CCC
C      -8.08847807     -1.04688889      0.39766474
C      -6.98167625     -1.02047178     -0.64516087
C      -5.75474148     -0.21021348     -0.21781709
C      -4.99706775     -0.83454103      0.95702951
C      -3.77371057     -0.02084484      1.39228798
C      -2.65446826      0.00472626      0.34895071
C      -1.41511202      0.72582771      0.88447532
C      -0.29519204      0.75680527     -0.15815324
C       0.94408040      1.47349537      0.38184469
C       2.05846902      1.62953757     -0.65742756
C       2.62172229      0.32425119     -1.22856399
C       3.17599265     -0.66179469     -0.19735419
C       4.29455243     -0.12367710      0.70312480
O       4.68343837     -1.18316909      1.58029087
C       5.53263014      0.40919705     -0.03280197
C       6.22998325     -0.62743045     -0.91917139
C       7.48635095     -0.05335198     -1.55712218
H      -7.78196159     -1.59024770      1.29602052
H      -8.37981754     -0.03252923      0.68783732
H      -8.97261094     -1.55027236     -0.00674845
H      -6.68502347     -2.04704916     -0.88965078
H      -7.38379982     -0.57950473     -1.56523081
H      -5.08954911     -0.13491735     -1.08518291
H      -6.05992034      0.81152920      0.03828354
H      -5.66522916     -0.91488445      1.82186018
H      -4.68761336     -1.85460076      0.69941514
H      -3.38580062     -0.46034200      2.31980841
H      -4.08021188      1.00429712      1.63337575
H      -2.38907713     -1.02178426      0.06888230
H      -2.99756316      0.51199462     -0.55938880
H      -1.68175312      1.75103605      1.16880540
H      -1.05830748      0.22079991      1.79038537
H      -0.04181919     -0.27101303     -0.44093068
H      -0.64941565      1.26589944     -1.06256138
H       0.65672420      2.47639078      0.72223204
H       1.32273864      0.94672580      1.26508650
H       1.68076097      2.23424179     -1.49168295
H       2.87251290      2.21192032     -0.20997887
H       3.40711217      0.57333337     -1.95215344
H       1.84205493     -0.18319289     -1.80922135
H       2.35939197     -1.02711630      0.43875114
H       3.52758894     -1.56004603     -0.72114915
H       3.89345502      0.67435002      1.33781424
H       5.36272473     -0.83225098      2.18110953
H       5.26203037      1.28519817     -0.63318244
H       6.25533559      0.75483565      0.71795303
H       6.50197253     -1.50946431     -0.32872540
H       5.55642445     -0.96202235     -1.71515632
H       7.96803032     -0.80599904     -2.18915674
H       7.24778955      0.81305923     -2.18224584
H       8.20605325      0.26016839     -0.79421143
