21
COC(=O)c1cc(O)c(O)c(O)c1
C       3.90263143     -0.58072721     -0.51332235
O       2.57569360     -0.47625879      0.00453351
C       1.67139528      0.00046473     -0.88462073
O       1.90382076      0.32904377     -2.03775812
C       0.31707000      0.08055373     -0.27480319
C       0.06978414     -0.30205448      1.05319688
C      -1.21923451     -0.20199263      1.56060447
O      -1.46095941     -0.57356241      2.85128322
C      -2.25678578      0.27069780      0.76793841
O      -3.51445958      0.35626178      1.29995864
C      -2.01751301      0.65069571     -0.54700634
O      -3.07611750      1.10837454     -1.28040103
C      -0.73545567      0.55979335     -1.07807333
H       4.27730423      0.40424560     -0.80900657
H       3.93082114     -1.27650374     -1.35776331
H       4.54584746     -0.97220940      0.27959931
H       0.86255025     -0.67508853      1.69518849
H      -2.41893131     -0.41814419      2.98012019
H      -4.06311295      0.70814281      0.56862817
H      -2.75795799      1.33418137     -2.17289227
H      -0.53639058      0.85417486     -2.10540404
