34
COc1cc(NS(=O)(=O)c2ccc(N)cc2)nc(C)n1
C       3.26144412      3.41396288      0.15825424
O       2.57761679      2.82504714     -0.94346478
C       2.20557085      1.51428333     -0.71908317
C       1.54570069      0.88861737     -1.74269947
C       1.19533289     -0.40774299     -1.48092129
N       0.47719026     -1.20808131     -2.39274909
S      -1.12748076     -0.77460176     -2.67117185
O      -1.16758035      0.57617047     -3.19084439
O      -1.73260976     -1.87147961     -3.39716098
C      -1.84262732     -0.76100041     -1.04214686
C      -2.02517373      0.44865091     -0.36918979
C      -2.58144907      0.44299967      0.91241452
C      -3.00801532     -0.75112668      1.50297818
N      -3.44847248     -0.76012084      2.83105447
C      -2.78347183     -1.95638669      0.82931774
C      -2.22666308     -1.96684813     -0.45209074
N       1.45642119     -1.05985899     -0.34250373
C       2.09066179     -0.34667999      0.60238097
C       2.40678257     -1.03285199      1.89404901
N       2.49024526      0.92770142      0.45733067
H       3.51411508      4.44231432     -0.11766278
H       4.19771441      2.88671712      0.37177405
H       2.62105887      3.45509255      1.04617127
H       1.32568779      1.38439914     -2.67644594
H       0.55001017     -2.19554881     -2.15659031
H      -1.72475892      1.39195734     -0.81925065
H      -2.68326551      1.38404147      1.44740353
H      -3.87426748      0.11234776      3.12907050
H      -4.01940560     -1.56513098      3.07009397
H      -3.04608341     -2.90114411      1.29890396
H      -2.08705018     -2.91246890     -0.97008340
H       3.35407761     -1.57191053      1.80266483
H       2.49137942     -0.30596018      2.70762979
H       1.61736505     -1.74535999      2.15230873
