35
CCOC(=O)CC(C)CC(C)(C)C
C       5.65279268     -0.33622116     -1.12361180
C       4.56633377     -0.44080438     -0.07116909
O       3.30056398     -0.24988639     -0.71444395
C       2.23092970     -0.31074651      0.12873357
O       2.29622264     -0.52407642      1.33088256
C       0.95337048     -0.11779357     -0.65913581
C      -0.22794629      0.36363066      0.20799318
C       0.02630987      1.80258655      0.68199861
C      -1.54561310      0.27835137     -0.60506340
C      -2.81170056     -0.20067086      0.16301491
C      -3.11141521      0.66786963      1.39275708
C      -4.01506098     -0.11162167     -0.79838546
C      -2.65852467     -1.66801193      0.60368689
H       5.62079596      0.64197103     -1.61475695
H       6.64188850     -0.47595233     -0.67859703
H       5.50663985     -1.08960827     -1.90473318
H       4.71434138      0.33223519      0.69122988
H       4.59781634     -1.43162244      0.39569374
H       1.13468931      0.60238031     -1.46612873
H       0.72124406     -1.08930024     -1.11144115
H      -0.28946774     -0.27747027      1.09317909
H       0.93150532      1.86429274      1.29440290
H      -0.80001654      2.17894670      1.29012430
H       0.15184320      2.48282456     -0.16765239
H      -1.40420273     -0.40572072     -1.45328631
H      -1.75037940      1.25808554     -1.05829484
H      -3.20014704      1.72454109      1.11783501
H      -2.33060948      0.57584842      2.15450491
H      -4.05537136      0.37026383      1.86416172
H      -4.93700861     -0.45474028     -0.31520817
H      -3.85739529     -0.73026145     -1.68912964
H      -4.17932360      0.91927247     -1.13191476
H      -1.86489973     -1.79297841      1.34664500
H      -2.42329163     -2.31424989     -0.24938602
H      -3.58491307     -2.04136287      1.05549537
