49
O=C1CC2OCC=C3C[N+]4(O)CCC56c7ccccc7N1C5C2C3CC64
O       2.15947560     -3.24063522     -1.89321883
C       1.24396744     -2.51787251     -1.50515274
C      -0.21516349     -3.05170534     -1.51778466
C      -1.27770150     -2.03327838     -1.07833458
O      -2.51326589     -2.57296389     -0.63210836
C      -3.63353269     -1.72725246     -0.95358558
C      -3.49332978     -0.24648537     -0.59809523
C      -2.60246699      0.33384192      0.23626827
C      -2.51469567      1.81436254      0.48891251
N      -1.06051345      2.33470891      0.54325124
O      -1.05545181      3.63069766      1.24233825
C      -0.50308051      2.59256427     -0.86845413
C       0.93721377      2.11919078     -0.80089188
C       0.88156269      0.88055231      0.10692397
C       2.27572294      0.40101873      0.42077017
C       3.23503697      1.00754028      1.22066815
C       4.48883747      0.40161720      1.32974871
C       4.77325078     -0.78877516      0.64398210
C       3.80872927     -1.39724769     -0.16180875
C       2.57114572     -0.79148748     -0.26874873
N       1.43385013     -1.24896835     -0.95491070
C       0.32757806     -0.35258454     -0.64430971
C      -0.67711746     -1.23063597      0.07706842
C      -1.63191457     -0.50870670      1.01163574
C      -0.78993863      0.30405695      1.99792566
C      -0.02671148      1.37886672      1.24687163
H      -0.24892205     -3.92470268     -0.85451899
H      -0.44501437     -3.40871149     -2.52798504
H      -1.48009272     -1.41529546     -1.96493622
H      -3.81224238     -1.81428671     -2.03195366
H      -4.51288649     -2.13498334     -0.44477155
H      -4.22412697      0.37952141     -1.11201916
H      -2.95905732      2.04211657      1.46511050
H      -3.03821191      2.40998151     -0.26725638
H      -1.34564038      3.45782882      2.16245770
H      -1.09129010      2.00737150     -1.58215422
H      -0.60033305      3.65715645     -1.10261827
H       1.33946161      1.91049835     -1.79858389
H       1.56268567      2.90576950     -0.35843500
H       3.04891032      1.93914315      1.74543109
H       5.26252713      0.85672093      1.94621182
H       5.75682044     -1.24564689      0.74026084
H       4.04352110     -2.32225223     -0.67981273
H      -0.06582094     -0.01804242     -1.61310080
H      -0.15430134     -1.94012971      0.74128490
H      -2.19964384     -1.24202869      1.60096168
H      -1.42651270      0.75346161      2.77067584
H      -0.08583942     -0.35050555      2.52698028
H       0.53452282      2.00659616      1.94981028
