49
COc1ccc(CC(C)NCC(O)c2ccc(O)c(NC=O)c2)cc1
C       7.58793901     -0.70016594     -1.90200815
O       7.32871024     -0.40062291     -0.53625463
C       6.07326748      0.04820517     -0.23134024
C       5.05675751      0.32700422     -1.14327570
C       3.81289879      0.78426174     -0.69368445
C       3.56881071      0.96785638      0.67366960
C       2.22098670      1.45326395      1.15680835
C       1.08602708      0.40610103      1.01419441
C       1.30296722     -0.76459884      1.98137518
N      -0.20928383      1.07201144      1.28446461
C      -1.35904351      0.27610716      0.79258142
C      -2.68103732      1.03302443      1.07870424
O      -2.72107447      1.36431181      2.47295652
C      -3.89626161      0.22519270      0.67106511
C      -4.72644474     -0.39896185      1.61550359
C      -5.83296653     -1.14749923      1.21106084
C      -6.10599038     -1.28202567     -0.14699657
O      -7.18614389     -2.01497292     -0.57208176
C      -5.28891469     -0.68057408     -1.11443663
N      -5.63441525     -0.89292736     -2.46247239
C      -4.97675168     -0.45576643     -3.58223636
O      -3.95250553      0.20663863     -3.66397057
C      -4.19358161      0.07632399     -0.69778491
C       4.59538502      0.69384418      1.58360031
C       5.83597345      0.23839998      1.13145924
H       7.52320796      0.19947732     -2.52210741
H       8.61196450     -1.08028695     -1.97218981
H       6.91582756     -1.48418539     -2.26888823
H       5.19724629      0.20285258     -2.21138240
H       3.03427851      0.99586319     -1.42281882
H       2.29442198      1.78548945      2.20075155
H       1.97648095      2.35368255      0.57691852
H       1.08818536      0.02597555     -0.01541941
H       2.27073083     -1.24616153      1.80880545
H       1.27621514     -0.43003478      3.02458565
H       0.54457902     -1.54247104      1.85452702
H      -0.22125321      1.96725905      0.78981707
H      -1.25798770      0.08085404     -0.28116915
H      -1.39027696     -0.68477666      1.31682737
H      -2.69354028      1.98592280      0.53540777
H      -1.78271140      1.50837272      2.71218442
H      -4.51180699     -0.30042814      2.67929716
H      -6.45821230     -1.61288797      1.96579957
H      -7.66934762     -2.32221304      0.21422707
H      -6.46834853     -1.45980016     -2.58791492
H      -5.49776459     -0.79864881     -4.49284250
H      -3.55239623      0.56389831     -1.42656289
H       4.43912440      0.82897184      2.65188291
H       6.62607515      0.02884350      1.84849466
