10
CS(=O)(=O)O.[Cu]
C       1.05037747     -0.04221997     -0.08646800
S      -0.64418212     -0.47022435      0.16172862
O      -1.07392212     -1.32398286     -1.01251642
O      -0.91207223     -1.11255963      1.46658127
O      -1.58034524      0.93619197      0.08261585
Cu      0.00000000      0.00000000      0.00000000
H       1.38784927      0.55387620      0.79314126
H       1.08125440      0.62961881     -0.99196702
H       1.70380603     -0.88003152     -0.29940907
H      -1.01276547      1.70933135     -0.11370649
