27
C=CCC1(CC=C)C(=O)NC(=O)NC1=O
C      -2.44674918     -2.68252675      0.09801736
C      -2.09507693     -1.45715296      0.50757678
C      -1.53211434     -0.39664855     -0.40332548
C      -0.09577471      0.09518455     -0.05754831
C       0.90261722     -1.08590164     -0.01024241
C       2.32416322     -0.68987170      0.31446751
C       3.32220026     -0.67705352     -0.57752542
C      -0.15499594      0.82236399      1.27704368
O       0.09631247      0.29887609      2.36038603
N      -0.57526081      2.12252353      1.23451607
C      -0.33494926      2.94880365      0.18342400
O      -0.29407474      4.16653979      0.32212341
N      -0.06745241      2.35979702     -1.01190429
C       0.27444145      1.04633014     -1.18713714
O       0.76921480      0.68557306     -2.25352880
H      -2.34153474     -2.99708589     -0.93600854
H      -2.85059738     -3.40685605      0.79984668
H      -2.22889939     -1.20170660      1.55831410
H      -1.54730986     -0.76249454     -1.43993102
H      -2.23378474      0.44888226     -0.38464741
H       0.60097972     -1.81559148      0.75200551
H       0.88201244     -1.62695541     -0.96610375
H       2.54202633     -0.43509547      1.35123819
H       3.15818591     -0.93424693     -1.62059912
H       4.33067999     -0.40330354     -0.28280523
H      -0.60557656      2.59089053      2.13086188
H       0.20131716      2.98672643     -1.75851427
