50
C[C@@]1(Cn2ccc(-n3cccc3)c2-n2cccc2)[C@H](C(=O)[O-])N2C(=O)C[C@@H]2S1(=O)=O.[Na+]
C       1.21176389      0.06976465      1.61222403
C       1.86786698     -0.03774433      0.21721949
C       0.88142282      0.32845291     -0.91778272
N      -0.44086831     -0.29923172     -0.87489437
C      -0.66353380     -1.55074501     -1.40295806
C      -1.94196361     -1.94036564     -1.09181971
C      -2.57280224     -0.85299067     -0.43065357
N      -3.96445707     -0.85418628     -0.09030739
C      -4.78351689      0.23582897      0.13122075
C      -6.05978120     -0.19684971      0.41825053
C      -6.04935882     -1.60304286      0.33829788
C      -4.76735710     -1.97922989      0.00364445
C      -1.61565762      0.14934210     -0.28638833
N      -1.72596211      1.34714023      0.42838855
C      -2.29523621      1.48682027      1.68341151
C      -2.18778136      2.79659672      2.09415353
C      -1.54578287      3.50232987      1.05750419
C      -1.28418672      2.59870893      0.05083671
C       3.16778441      0.80794234      0.24310347
C       3.48924941      1.28282980     -1.20074801
O       2.99973479      2.40822576     -1.49574871
O       4.11443556      0.45900792     -1.91653730
N       4.19734295     -0.01906952      0.92949220
C       5.49355510      0.00359485      0.47614906
O       6.32206836      0.88271045      0.49746745
C       5.41441249     -1.46958574      0.01621127
C       4.09870192     -1.49952210      0.78069103
S       2.51558277     -1.73683006     -0.00956216
O       2.66430845     -2.07670084     -1.40983998
O       1.73686828     -2.63694246      0.83132771
Na      0.00000000      0.00000000      0.00000000
H       1.90970948     -0.20483650      2.41159135
H       0.88193709      1.09475762      1.80886147
H       0.34959100     -0.59570175      1.71725257
H       0.72331904      1.40429030     -0.93252176
H       1.28784779      0.07459200     -1.90480312
H       0.11566656     -2.07708775     -1.94179850
H      -2.37818983     -2.88583332     -1.38508608
H      -4.40535828      1.24274059      0.03433943
H      -6.90592374      0.44103908      0.63673111
H      -6.88359911     -2.27389052      0.49463320
H      -4.35007306     -2.96455950     -0.14683848
H      -2.69973879      0.62350231      2.19433676
H      -2.53260924      3.19313989      3.03968039
H      -1.30310520      4.55675681      1.03219914
H      -0.84748778      2.76219335     -0.92538769
H       3.04509832      1.70775084      0.85961676
H       6.20101128     -2.10448221      0.43226152
H       5.36687349     -1.60845690     -1.06512878
H       4.14817870     -1.99217330      1.75867746
