24
c1ccc2c(c1)ccc1ccccc12
C       3.57321431     -0.12556098      0.00064455
C       2.96976781     -1.37321617     -0.02756573
C       1.57506385     -1.47321207     -0.03112003
C       0.73362072     -0.33181290     -0.00664975
C       1.37853531      0.93169527      0.02195242
C       2.78130985      1.01915154      0.02523815
C       0.61738342      2.10303405      0.04716418
C      -0.77362716      2.05076785      0.04467491
C      -1.44463691      0.82561667      0.01689962
C      -2.85002161      0.80756053      0.01515044
C      -3.55369752     -0.39334945     -0.01211474
C      -2.85822601     -1.59219884     -0.03799586
C      -1.45994732     -1.58725051     -0.03654532
C      -0.70662504     -0.38592895     -0.00922331
H       4.65630307     -0.04047467      0.00356788
H       3.57813665     -2.27359789     -0.04691395
H       1.15383184     -2.47405163     -0.05367835
H       3.27189875      1.99022933      0.04721102
H       1.10171600      3.07700495      0.06919873
H      -1.32975959      2.98564392      0.06483836
H      -3.41216394      1.73908948      0.03523984
H      -4.64012140     -0.38979109     -0.01308253
H      -3.39723625     -2.53569430     -0.05941413
H      -0.96471884     -2.55365414     -0.05747638
