32
CCCCCCCCC(=O)OC
C       4.03631118      1.32073484     -2.33337896
C       3.47559908      1.76319065     -0.99067806
C       2.64374344      0.68633160     -0.29086215
C       1.35653448      0.33267533     -1.03927333
C       0.51144484     -0.66832484     -0.24603432
C      -0.77697856     -1.01972706     -0.99338002
C      -1.60211001     -2.11753538     -0.31066536
C      -2.12938889     -1.76053437      1.07903692
C      -3.13518713     -0.63280881      1.05847394
O      -3.82338329     -0.31695516      0.09835957
O      -3.18737892     -0.04344420      2.28668167
C      -4.12610975      1.02906063      2.37566772
H       4.61553977      0.39749189     -2.23268624
H       3.24073501      1.15301787     -3.06510638
H       4.69858958      2.09369003     -2.73648959
H       2.87429070      2.66952573     -1.12718864
H       4.31288733      2.03426782     -0.33648499
H       2.38711221      1.05035022      0.71177441
H       3.25166506     -0.21614969     -0.15295339
H       1.59785684     -0.09772456     -2.01762015
H       0.77302349      1.24374871     -1.21864079
H       0.27200506     -0.23623050      0.73183921
H       1.09439274     -1.57978586     -0.06733704
H      -1.38441291     -0.11678806     -1.12402070
H      -0.52049945     -1.36924825     -2.00146186
H      -2.44570976     -2.37169750     -0.96456066
H      -0.98865575     -3.02337392     -0.22970940
H      -2.63322998     -2.63358165      1.50941323
H      -1.29928500     -1.49648684      1.74181450
H      -4.08112492      1.43527624      3.38992210
H      -3.86625708      1.82597467      1.67179868
H      -5.14201943      0.66506039      2.19307749
