34
[N-]=[N+]=NCC(=O)N[C@H](CO)[C@H](O)c1ccc([N+](=O)[O-])cc1
N      -5.08446574      2.61383589     -2.29582610
N      -4.98191710      1.73015962     -1.58493185
N      -4.86775948      0.76533018     -0.80542991
C      -4.48335629      1.11583307      0.57506495
C      -2.96432619      1.19723638      0.68271366
O      -2.40034368      1.98298258      1.43808920
N      -2.29049371      0.27670462     -0.08179640
C      -0.83410597      0.31199705     -0.35021526
C      -0.54347573     -0.79633688     -1.38469204
O      -1.47671419     -0.69019925     -2.46759614
C       0.03470150      0.16424541      0.93974083
O       0.11383334      1.39776545      1.66029070
C       1.47362448     -0.24738058      0.68256687
C       2.38382591      0.64585971      0.08974989
C       3.70409408      0.26309311     -0.15827882
C       4.12330228     -1.02572241      0.19048836
N       5.50878568     -1.43599986     -0.06868537
O       6.26634036     -0.61089982     -0.59912399
O       5.83745157     -2.58820397      0.24917373
C       3.23193811     -1.92821992      0.78462350
C       1.91305390     -1.53573009      1.02919879
H      -4.92176965      2.07280119      0.88052098
H      -4.83449667      0.33618617      1.25807895
H      -2.83785094     -0.10830501     -0.85224562
H      -0.65314982      1.29252202     -0.80950082
H      -0.66598492     -1.79027014     -0.94138061
H       0.46306596     -0.70478229     -1.80235742
H      -1.20636162     -1.34327178     -3.13816893
H      -0.43592567     -0.56168818      1.61430192
H      -0.80430299      1.73450385      1.75161540
H       2.06561691      1.65749162     -0.16141711
H       4.38702048      0.97983683     -0.60977763
H       3.54785294     -2.93024150      1.06840560
H       1.23229284     -2.24113310      1.50318306
