15
NC(=O)c1ncc[nH]c1=O
N       2.77595180      0.23594618     -0.04215231
C       1.87397460     -0.58284266      0.58860010
O       2.20028645     -1.50860709      1.30979869
C       0.41823959     -0.19546613      0.37755763
N       0.15736752      1.09284150      0.35370475
C      -1.15703216      1.45902816      0.19471881
C      -2.17723673      0.60294080      0.06132957
N      -1.94332599     -0.74207335      0.06200453
C      -0.66995232     -1.25336644      0.18764054
O      -0.42197168     -2.44538424      0.12194610
H       2.44888882      1.14316028     -0.35630262
H       3.74335976      0.14366877      0.23560231
H      -1.34901145      2.52997758      0.19027379
H      -3.20489776      0.92978788     -0.05688123
H      -2.69464047     -1.40961122     -0.06125462
