24
CC(=O)N[C@H](C(=O)O)C(C)C
C       3.28987395     -0.65156020      0.13853195
C       2.06635813     -0.38631732     -0.69676092
O       2.10110144     -0.37798549     -1.92217334
N       0.92658967     -0.14757875      0.03895348
C      -0.29312527      0.32500142     -0.62250771
C      -0.26450960      1.85577736     -0.65304183
O       0.38755684      2.58169150      0.08426684
O      -1.09073281      2.38527589     -1.57733801
C      -1.57655959     -0.19071560      0.06310662
C      -1.66436403      0.16686914      1.55045275
C      -1.71744807     -1.70537638     -0.11608931
H       3.83616651     -1.49865775     -0.28546941
H       3.02485222     -0.89864449      1.17047045
H       3.92556470      0.23756248      0.13491104
H       1.07723096      0.19785188      0.97980911
H      -0.27308977     -0.01375783     -1.66585257
H      -0.95018511      3.35237529     -1.50122200
H      -2.43782903      0.27680444     -0.43276407
H      -0.87157898     -0.31427364      2.13230239
H      -2.62329874     -0.16226354      1.96588567
H      -1.59543403      1.24796790      1.70529776
H      -1.69757597     -1.97503892     -1.17728894
H      -0.91105033     -2.24809623      0.38832688
H      -2.66851306     -2.05691114      0.29819317
