12
CN(C)C=O
C      -1.08751293     -0.79470542     -0.26830296
N      -0.03269627      0.16519537     -0.00713802
C       1.33826436     -0.27465594     -0.16464315
C      -0.33216055      1.39632455      0.53836363
O      -1.45196327      1.81147725      0.80674735
H      -2.07702409     -0.33741554     -0.18540104
H      -1.00930312     -1.60816135      0.45887956
H      -0.96265875     -1.19361623     -1.27903634
H       1.53360896     -1.08140110      0.54770901
H       1.47970475     -0.64231020     -1.18483617
H       2.03871407      0.54375670      0.02314937
H       0.56302684      2.01551193      0.71450876
