35
CC(=O)OCC(C(OC(C)=O)c1ccccc1)[N+](=O)[O-]
C       4.81577992      1.27646434      0.57053962
C       3.33644323      1.17290348      0.36647877
O       2.49143496      1.57246993      1.15426748
O       3.06336635      0.54937401     -0.81321881
C       1.66326455      0.42328020     -1.14576503
C       0.97297349     -0.67323704     -0.33329643
C      -0.53834710     -0.79083041     -0.57422330
O      -1.07236441     -1.78307141      0.33340238
C      -2.12975008     -2.50712785     -0.12678865
C      -2.59061465     -3.46491117      0.92835446
O      -2.63235849     -2.40437281     -1.23591253
C      -1.28634244      0.50362418     -0.28850998
C      -1.12833267      1.19768504      0.92201680
C      -1.82378390      2.38550467      1.15523803
C      -2.69430624      2.88744616      0.19086023
C      -2.87566042      2.19980732     -1.00644390
C      -2.17915895      1.01393127     -1.24439526
N       1.58656763     -1.98315492     -0.75992411
O       2.19931942     -2.62323063      0.10486490
O       1.44665981     -2.33256219     -1.93980928
H       5.26709371      1.82713760     -0.25863761
H       5.01606438      1.82119293      1.49757144
H       5.24899766      0.27641743      0.65004477
H       1.18891034      1.40067587     -0.99998337
H       1.61339960      0.22381802     -2.22263989
H       1.19814764     -0.59247611      0.73641126
H      -0.71613665     -1.08778731     -1.61658262
H      -3.44838519     -4.03105152      0.55421329
H      -2.90026509     -2.91334312      1.81960474
H      -1.78732773     -4.16585841      1.16854651
H      -0.46325825      0.82639809      1.69960073
H      -1.68698340      2.91816908      2.09331307
H      -3.23770924      3.81039601      0.37617943
H      -3.56594066      2.58306333     -1.75391584
H      -2.35139712      0.48325595     -2.18004425
