36
CC1(C)OCC(COC(=O)c2ccccc2C(=O)O)O1
C      -4.87723672      0.11254524      0.09426678
C      -3.57614751     -0.34875903      0.73830638
C      -3.84090260     -1.19897327      1.97449443
O      -2.80676466      0.80067654      1.12725002
C      -1.72651195      0.85021182      0.19206521
C      -1.50644154     -0.60179773     -0.15785494
C      -0.76763870     -0.81123662     -1.47359708
O       0.50714986     -0.15188359     -1.48821988
C       1.48921505     -0.78868845     -0.80470061
O       1.40487681     -1.85104673     -0.21527227
C       2.71023862      0.03277354     -0.85776394
C       3.21757877      0.41605591     -2.10866255
C       4.42380829      1.11429960     -2.18831622
C       5.13128924      1.42155275     -1.02607932
C       4.62794489      1.04399597      0.22065543
C       3.40716322      0.36002979      0.31010480
C       2.90795422      0.04086322      1.66017047
O       3.59010104     -0.29454636      2.60913324
O       1.59105772      0.28463924      1.77619995
O      -2.83976870     -1.12246046     -0.22303826
H      -4.67146010      0.71857680     -0.79555800
H      -5.46239390      0.73372798      0.78033191
H      -5.48503187     -0.73901502     -0.22900767
H      -4.39195703     -0.63509159      2.73440254
H      -2.89726409     -1.51857002      2.43130729
H      -4.40069522     -2.10530276      1.72119544
H      -2.05415873      1.44218297     -0.66987952
H      -0.85404988      1.32803932      0.64461133
H      -0.99071438     -1.10791118      0.66693923
H      -1.35510612     -0.39959864     -2.30288230
H      -0.65746662     -1.87974086     -1.69864537
H       2.68645440      0.15667483     -3.02206876
H       4.81971867      1.40746881     -3.15838224
H       6.07653868      1.95658705     -1.08992032
H       5.18397643      1.29183589      1.12346413
H       1.38664439      0.04188503      2.70495068
