32
COc1cccc(OCC(O)CO)c1OC
C       4.15662762     -0.13915666      1.95119556
O       2.86390016      0.29599217      1.55278934
C       2.22441187     -0.43235972      0.58411748
C       2.78756331     -1.50739787     -0.11274581
C       2.04755212     -2.19239732     -1.08463459
C       0.73359613     -1.82002208     -1.36159713
C       0.15912729     -0.76513878     -0.65946717
O      -1.12617458     -0.40719834     -0.97156651
C      -2.03937024     -0.89648849      0.02754827
C      -3.33829400     -0.09543586     -0.07689670
O      -3.89582767     -0.22929334     -1.39821312
C      -3.12912325      1.39698876      0.19524961
O      -4.38636993      2.07250234      0.11077786
C       0.90867951     -0.04698654      0.28113579
O       0.30796990      0.99584168      0.94784350
C       0.66740050      2.23387939      0.33397250
H       4.87299517     -0.04746946      1.12832570
H       4.12864539     -1.16225231      2.34058487
H       4.49499741      0.51526386      2.76027668
H       3.80485063     -1.83710878      0.07204850
H       2.50017423     -3.02058553     -1.62505748
H       0.16128333     -2.35172830     -2.11620769
H      -1.63658975     -0.81631053      1.04455657
H      -2.24104469     -1.95125440     -0.19523648
H      -4.08471221     -0.49581852      0.61744040
H      -3.14749368     -0.11376587     -2.01637384
H      -2.47137969      1.85378835     -0.55081530
H      -2.71324088      1.56861133      1.19214733
H      -4.84565878      1.67290655     -0.65450559
H       1.73531796      2.44519083      0.45034876
H       0.11000957      3.02921782      0.83779417
H       0.39017723      2.24798561     -0.72612836
