43
COc1cc(N=Nc2ccc([N+](=O)[O-])cc2)ccc1NN=C1C=CC(=O)C=C1
C      -0.75374142     -1.81706517      3.08539522
O      -1.55810745     -1.20594329      2.08371341
C      -0.90266462     -0.46959904      1.12264517
C       0.46602451     -0.18024566      1.12868299
C       1.04212879      0.57412396      0.09484597
N       2.41169506      0.90026167      0.08926825
N       3.11316539     -0.13512949      0.06189002
C       4.47987931      0.19361196      0.02660197
C       5.25814517     -0.24416375     -1.05232428
C       6.62676955      0.03874316     -1.11069474
C       7.22546380      0.76121017     -0.07065906
N       8.66173290      1.06276048     -0.12503215
O       9.15201657      1.70350763      0.81570294
O       9.29843443      0.65760407     -1.10767715
C       6.46511477      1.19539530      1.02257391
C       5.09775860      0.90444797      1.06702118
C       0.22878352      1.05293214     -0.93463171
C      -1.13876137      0.77237403     -0.94676366
C      -1.72316569      0.03040652      0.08729876
N      -3.09905104     -0.33109469      0.05792595
N      -3.94262991      0.49360366     -0.62322905
C      -5.16648085      0.08820305     -0.78357669
C      -5.73507456     -1.21849192     -0.34916488
C      -7.02091039     -1.52588417     -0.54661459
C      -7.94587981     -0.58986935     -1.20952904
O      -9.12592624     -0.86990952     -1.37159260
C      -7.39102587      0.69396990     -1.67245526
C      -6.10636768      1.00444109     -1.47855574
H      -0.27062810     -1.06263313      3.71482114
H      -1.41298643     -2.41104110      3.72574086
H      -0.01774302     -2.49727377      2.64390110
H       1.11759998     -0.52651001      1.92307941
H       4.78830225     -0.80728884     -1.85607342
H       7.20356739     -0.30955033     -1.96524210
H       6.91499604      1.75381373      1.84095146
H       4.50432237      1.23538467      1.91667142
H       0.66352165      1.64150744     -1.73815270
H      -1.75227546      1.13458835     -1.76764984
H      -3.37589810     -0.60158669      1.00681234
H      -5.06740192     -1.92892801      0.12129150
H      -7.43948526     -2.47602198     -0.23787744
H      -8.07766279      1.36568774     -2.17272199
H      -5.69555405      1.94965120     -1.81616676
