72
CCCCCCCCCCCCCCCCCC(=O)O[Al](O)OC(=O)c1ccccc1
C      -9.05057871     -1.08727532     -2.55786822
C      -9.38775416     -0.66783573     -1.14157052
C      -8.14207384     -0.15053778     -0.43330005
C      -7.08137179     -1.19262451     -0.36427784
C      -5.84939827     -0.67143043      0.31883793
C      -6.16881345     -0.26592848      1.70989721
C      -4.96489660      0.25742640      2.49208987
C      -4.39895078      1.45598647      1.81408475
C      -3.20242554      2.03250755      2.54558966
C      -2.07782575      1.05109890      2.66548401
C      -1.54582979      0.56482217      1.36178077
C      -1.00239661      1.64308661      0.48213007
C      -0.46515042      1.22556878     -0.81284677
C       0.60027507      0.25428194     -0.98029372
C       1.95636349      0.45092997     -0.41383471
C       2.00531334      0.48614180      1.07501497
C       3.40733640      0.67689288      1.62824748
C       4.33307539     -0.40589665      1.27361683
O       4.06812751     -1.44280494      0.63426143
O       5.68416117     -0.29998362      1.68353227
Al      6.91111148     -1.62885620      1.27256685
O       7.53083683     -2.64863215      2.69185086
O       7.97523222     -1.57648731     -0.24601731
C       8.68370275     -0.47428702     -0.65065701
O       8.61779143      0.56684567      0.03615603
C       9.50406867     -0.49819826     -1.85718724
C       9.60508384     -1.62112665     -2.64163605
C      10.37833285     -1.66328836     -3.78955824
C      11.07673070     -0.54255900     -4.16837393
C      10.98742852      0.59485202     -3.39268978
C      10.20737479      0.62219204     -2.24323258
H      -8.21790787     -0.43811364     -2.88874603
H      -8.69990386     -2.12322520     -2.56875880
H      -9.92328060     -0.92951346     -3.22311478
H     -10.09339346      0.19172722     -1.17665756
H      -9.81940801     -1.48041444     -0.55113814
H      -7.75699540      0.71026718     -1.00782064
H      -8.48947110      0.23768196      0.53415721
H      -6.81029517     -1.59884681     -1.36431141
H      -7.45623005     -2.04834370      0.27119490
H      -5.47842303      0.16381879     -0.31435583
H      -5.04923428     -1.46757447      0.37144595
H      -6.52464067     -1.19576846      2.24440587
H      -6.99760560      0.44774380      1.79418051
H      -5.37160465      0.50697907      3.50790650
H      -4.24455311     -0.57565815      2.52822098
H      -4.12829469      1.17672828      0.76741471
H      -5.19669399      2.22102920      1.72963106
H      -2.91090116      2.96901828      2.03146787
H      -3.56237467      2.33184852      3.55182751
H      -2.36605630      0.20652744      3.32224139
H      -1.24908379      1.57439853      3.20094689
H      -2.40361247      0.09008981      0.79923668
H      -0.77115494     -0.21377954      1.49473234
H      -1.97517488      2.24102143      0.18547254
H      -0.41242626      2.36920656      1.04767168
H      -0.10092930      2.19283255     -1.32463345
H      -1.32167272      0.95705681     -1.53859706
H       0.30374988     -0.80417221     -0.70126548
H       0.78026432      0.11582225     -2.11194058
H       2.47740246      1.34653848     -0.86546451
H       2.57346593     -0.45303345     -0.73191801
H       1.60374843     -0.51286179      1.43919020
H       1.37521578      1.23963657      1.52495310
H       3.29546730      0.80253549      2.72102270
H       3.79651808      1.61058764      1.13812301
H       8.09878071     -2.04611303      3.25780901
H       9.05485273     -2.49151221     -2.33639305
H      10.39802499     -2.58979759     -4.34461840
H      11.69321708     -0.55795740     -5.07347415
H      11.53329051      1.49284300     -3.67632543
H      10.15244311      1.51720740     -1.65551632
