28
C=Cc1ccc(C(C)(C)C)cc1
C       4.66233074      0.49553219     -0.98737267
C       3.88707301     -0.32671593     -0.26853222
C       2.42809561     -0.20665437     -0.14763479
C       1.61967068      0.24206760     -1.19363955
C       0.22878199      0.31165093     -1.04327328
C      -0.40505677     -0.07316088      0.15294677
C      -1.93528729      0.01825255      0.28170719
C      -2.47432143     -0.43286973      1.65810214
C      -2.38813046      1.47939481      0.07149791
C      -2.60013557     -0.87796085     -0.78530746
C       0.41850750     -0.53720452      1.18991136
C       1.81068965     -0.60792208      1.03970145
H       4.26348540      1.33815003     -1.54219683
H       5.73713355      0.34646499     -1.01962152
H       4.34926401     -1.13753148      0.29010962
H       2.05568712      0.53413298     -2.14547736
H      -0.35567056      0.67077148     -1.88768050
H      -2.22568682     -1.48022246      1.86546743
H      -3.56674423     -0.34695203      1.70205867
H      -2.07002206      0.18175154      2.47085704
H      -3.47316854      1.57837388      0.19324543
H      -2.14375330      1.84927958     -0.93029352
H      -1.90873274      2.14892959      0.79551213
H      -2.35854044     -0.55754379     -1.80468289
H      -3.69242314     -0.85781865     -0.69360339
H      -2.27588748     -1.92036318     -0.68258798
H       0.00536982     -0.85749247      2.14225801
H       2.40747174     -0.97433971      1.87225217
