23
CCCCCCO[N+](=O)[O-]
C      -3.27448777      1.35383757      0.42743577
C      -2.50795389      0.05841843      0.64196668
C      -1.10707735      0.12865791      0.03245621
C      -0.34024249     -1.17656356      0.25536449
C       1.02611096     -1.20233062     -0.43058403
C       2.01803258     -0.18634477      0.13314259
O       3.26842064     -0.39416182     -0.52053917
N       4.27356104      0.49256275     -0.06572668
O       5.35337867      0.31609405     -0.62655687
O       3.95902925      1.30540358      0.80515185
H      -3.39091022      1.56862521     -0.63963527
H      -4.27275480      1.28131382      0.87027901
H      -2.75655806      2.19805653      0.89367411
H      -3.06902518     -0.76927076      0.19271707
H      -2.43637767     -0.14348207      1.71706978
H      -1.18434134      0.33108465     -1.04261112
H      -0.56254062      0.96603662      0.48298962
H      -0.93428326     -2.01237533     -0.13472885
H      -0.21494282     -1.35357906      1.33050652
H       1.45455415     -2.20781751     -0.32930537
H       0.91075476     -1.04089857     -1.50978188
H       2.12542179     -0.34414548      1.21321321
H       1.66223162      0.83087843     -0.06539066
