48
CC(C)Oc1ccc(S(C)(=O)=O)cc1C(=O)N1Cc2cc(C(F)(F)F)cnc2C1
C      -1.51971457     -3.26302238     -0.46793369
C      -2.29442077     -2.02895738     -0.91360198
C      -3.21633311     -2.38095700     -2.07726088
O      -1.33840730     -1.04870705     -1.36326121
C      -1.64538714      0.20769669     -0.91238142
C      -2.26398842      1.08409723     -1.80664972
C      -2.59671638      2.37846271     -1.40125141
C      -2.30089130      2.79001188     -0.09793636
S      -2.72080396      4.43206776      0.43256658
C      -4.16846438      4.18946422      1.42629588
O      -1.64338683      4.88528154      1.28930537
O      -3.10469778      5.18637714     -0.74567549
C      -1.63899018      1.93877014      0.79036111
C      -1.29907757      0.64963560      0.36941444
C      -0.61772260     -0.22541291      1.33716091
O      -1.26902911     -0.63445212      2.29347067
N       0.71382147     -0.50073114      1.14041473
C       1.57553041      0.01261950      0.07358917
C       2.92088412     -0.53332759      0.41604308
C       4.13214767     -0.37948027     -0.23131932
C       5.25333107     -1.02002503      0.31404363
C       6.61657885     -0.92004550     -0.29982777
F       6.63677474     -0.20506176     -1.45610445
F       7.51743105     -0.31828647      0.52630181
F       7.14494119     -2.13846026     -0.60463512
C       5.08462181     -1.77556344      1.47918220
N       3.90524941     -1.93762973      2.12633725
C       2.85631804     -1.30779728      1.56918809
C       1.44782282     -1.32906184      2.09726976
H      -0.93079829     -3.67556080     -1.29551329
H      -0.80989970     -3.01053549      0.32240481
H      -2.19186924     -4.04089331     -0.09694612
H      -2.89718701     -1.66536923     -0.07226630
H      -2.63818162     -2.71635306     -2.94705800
H      -3.92246000     -3.16993991     -1.79634254
H      -3.78971949     -1.50360304     -2.39988472
H      -2.49219820      0.75778485     -2.81894683
H      -3.08265055      3.05268424     -2.10501062
H      -4.50192729      5.16409116      1.78871112
H      -3.91580790      3.54955792      2.27071005
H      -4.95002191      3.73777865      0.81641947
H      -1.38320461      2.26633257      1.79675129
H       1.22949211     -0.36667234     -0.89168204
H       1.56116797      1.10660658      0.08905341
H       4.21084927      0.21943488     -1.13528712
H       5.92545683     -2.29063966      1.94114669
H       1.38326805     -0.88252282      3.09330849
H       1.02827032     -2.33968645      2.09912482
