22
Clc1ccc(Cl)c(-c2cc(Cl)ccc2Cl)c1
Cl     -4.04650807      0.95989247     -1.86852980
C      -2.95744380      0.10178254     -0.85056400
C      -3.42374022     -0.95873712     -0.07889266
C      -2.53821421     -1.65443837      0.74468692
C      -1.18898175     -1.28689687      0.79481508
Cl     -0.14786606     -2.20012629      1.83179780
C      -0.70480688     -0.21404874      0.02060926
C       0.70523387      0.20903414      0.04408723
C       1.60197587     -0.34214249     -0.89039928
C       2.94592016      0.03348122     -0.89483380
Cl      4.02065644     -0.65644460     -2.04705515
C       3.42338344      0.96292720      0.02482395
C       2.54945096      1.52253899      0.95730225
C       1.20061969      1.15028931      0.96791315
Cl      0.17413450      1.89179617      2.14678428
C      -1.61317591      0.47360549     -0.80595241
H      -4.47109458     -1.24790875     -0.11259989
H      -2.90499003     -2.48253166      1.34675850
H       1.24850954     -1.07398718     -1.61462125
H       4.47049888      1.25490427      0.02232595
H       2.92493994      2.24836202      1.67489682
H      -1.26850178      1.30864825     -1.41335294
