47
O=C(OCCCOCCCOC(=O)c1ccccc1)c1ccccc1
O       4.89053040     -0.99313297      1.51227381
C       4.77447114     -0.18303514      0.60602698
O       3.63429682      0.46472887      0.26035459
C       2.48833236      0.10970048      1.04953720
C       1.32125320      0.98092520      0.59933964
C       0.06801233      0.72975564      1.42423523
O      -0.34359192     -0.62312078      1.24929662
C      -1.51202454     -0.92694863      2.00824061
C      -2.01480547     -2.30504225      1.59537989
C      -2.52863856     -2.32916530      0.15770710
O      -3.80735058     -1.67233508      0.08828953
C      -3.85696253     -0.48346736     -0.56022397
O      -2.91686758      0.10413358     -1.06983558
C      -5.24767056      0.04867790     -0.56062859
C      -5.48087697      1.28843217     -1.17246847
C      -6.76685770      1.83193204     -1.19753086
C      -7.82678569      1.14095334     -0.61228506
C      -7.60444917     -0.09309229     -0.00204903
C      -6.31907740     -0.64027148      0.02509286
C       5.90010757      0.23211045     -0.27507754
C       5.73509646      1.14062305     -1.32991952
C       6.82607888      1.49595933     -2.12721553
C       8.08367105      0.94768145     -1.87675690
C       8.25551226      0.04276114     -0.83019668
C       7.16761547     -0.31499847     -0.03124845
H       2.26203231     -0.95148615      0.89548391
H       2.70371041      0.28990424      2.10939961
H       1.12050206      0.77678915     -0.45985132
H       1.60429029      2.03825500      0.66344533
H       0.26294514      0.92345483      2.48533530
H      -0.73033268      1.39925271      1.08427909
H      -2.28434066     -0.16619660      1.85080227
H      -1.24549379     -0.93633149      3.07106725
H      -1.19442788     -3.02685677      1.68286809
H      -2.81694214     -2.60839037      2.27764836
H      -1.80015293     -1.91606755     -0.54852085
H      -2.70418677     -3.36896542     -0.13916724
H      -4.66035921      1.83543546     -1.63348549
H      -6.94044309      2.79339199     -1.67465839
H      -8.82822687      1.56431477     -0.63296991
H      -8.43306767     -0.63099049      0.45238383
H      -6.16953983     -1.60430134      0.50465323
H       4.76313721      1.57810898     -1.54413343
H       6.69364315      2.20029371     -2.94495340
H       8.93103414      1.22531925     -2.49907559
H       9.23564249     -0.38562477     -0.63557729
H       7.31155707     -1.02307403      0.78285430
