40
Fc1ccc(-n2ncnc2-c2cc3c(s2)-c2ccccc2OCC3)c(F)c1
F      -4.69557955      3.21228011     -2.01932932
C      -4.33360082      2.11922816     -1.33605242
C      -5.07017741      1.73385066     -0.22188641
C      -4.69769936      0.59160228      0.49078400
C      -3.57062771     -0.15100063      0.09453531
N      -3.20809279     -1.30256618      0.83783287
N      -4.16162056     -1.95619855      1.56431171
C      -3.53032155     -3.07289925      1.91868466
N      -2.22102115     -3.14327550      1.56739324
C      -2.00133349     -1.98201887      0.97677207
C      -0.67676305     -1.52090241      0.67759536
C       0.32838970     -2.25243250      0.09132576
C       1.55752063     -1.51909430     -0.05298831
C       1.46647138     -0.23680708      0.48674021
S      -0.11897300      0.01992754      1.13043952
C       2.47877418      0.85820375      0.55024273
C       2.31076821      1.95544335      1.42357716
C       3.20884862      3.02993117      1.45205511
C       4.30632986      3.04185419      0.60329709
C       4.51550461      1.96746111     -0.25297753
C       3.63284057      0.87693667     -0.25930806
O       3.99469717     -0.11691837     -1.13343856
C       4.04796472     -1.39276960     -0.49198031
C       2.74764370     -2.13258701     -0.73458059
C      -2.87236903      0.23785055     -1.05100657
F      -1.88649726     -0.51243431     -1.55813142
C      -3.24190597      1.37648873     -1.76220753
H      -5.93031945      2.32204819      0.08445662
H      -5.28271101      0.30230373      1.36307311
H      -4.04038517     -3.85700650      2.46431847
H       0.18727456     -3.27381791     -0.24554642
H       1.46848152      2.00515868      2.10948251
H       3.03877709      3.85907746      2.13452853
H       4.99971159      3.87813216      0.61189350
H       5.37941903      1.96375237     -0.91313011
H       4.30096071     -1.31952437      0.57505364
H       4.86552576     -1.94649416     -0.96766917
H       2.86097026     -3.16778745     -0.39019475
H       2.53824433     -2.16261471     -1.81155332
H      -2.69511986      1.66761882     -2.65206992
