25
CCCC(=O)OCC(O)CO
C      -4.28424397      0.79381802     -0.24582930
C      -2.78405067      1.01930004     -0.33276681
C      -2.02413056      0.08506679      0.59933473
C      -0.54355692      0.34711915      0.52653314
O       0.08724464      0.99221043      1.35325109
O      -0.00499589     -0.23041465     -0.57866722
C       1.40040499      0.00608086     -0.81994757
C       2.28901335     -0.78715045      0.14849065
O       2.54168650     -0.05214884      1.36007823
C       3.65927439     -1.07400403     -0.47060124
O       4.46185616     -1.79118099      0.46708774
H      -4.80988243      1.47422005     -0.92307252
H      -4.54340993     -0.23211427     -0.52627613
H      -4.65016278      0.97572815      0.76972980
H      -2.55752926      2.06246028     -0.08145660
H      -2.45468587      0.86798208     -1.36765577
H      -2.34241760      0.22869164      1.63850979
H      -2.21160480     -0.96723735      0.35666179
H       1.59992998      1.08324631     -0.77266735
H       1.57294129     -0.32284650     -1.85004065
H       1.80691516     -1.72386121      0.44926423
H       1.70481523      0.38931414      1.62424800
H       3.57158865     -1.67660262     -1.37928776
H       4.18742727     -0.14478385     -0.70893659
H       4.32757308     -1.32289316      1.31683620
