42
CCOC(=O)C1=NN(c2ccc(Cl)cc2Cl)C(C)(C(=O)OCC)C1
C       5.32955127     -0.28955018     -2.66710824
C       3.91753496     -0.15501899     -3.21322125
O       2.96459589     -0.19554604     -2.14117249
C       2.71443099      0.98379807     -1.54201877
O       3.17425108      2.07907285     -1.81658732
C       1.71354942      0.81771563     -0.42674950
N       1.59043454     -0.26148949      0.28275986
N       0.59644449     -0.01881492      1.21604654
C      -0.12334999     -1.16894992      1.62687121
C      -0.51356130     -2.13559632      0.67524002
C      -1.25632253     -3.26110403      1.03999970
C      -1.60614038     -3.45197454      2.37512087
Cl     -2.53037428     -4.83182085      2.82465729
C      -1.20662483     -2.53718704      3.34631360
C      -0.46171194     -1.40845208      2.97653034
Cl      0.07420549     -0.36774582      4.25152367
C      -0.19494536      1.18741377      0.79752705
C      -0.58395073      2.06503345      1.98943907
C      -1.41602866      0.82002977     -0.07978048
O      -1.36337812      0.61058898     -1.29034537
O      -2.55861707      0.71019558      0.66782969
C      -3.74896028      0.30341787     -0.03441067
C      -4.48123182      1.52695343     -0.55166920
C       0.81708648      1.95456259     -0.07280478
H       5.57253384      0.53569541     -1.98085860
H       5.44248191     -1.21793063     -2.09097742
H       6.05554029     -0.29634294     -3.48753804
H       3.80509836      0.75878992     -3.81058840
H       3.69845686     -1.00139930     -3.87260791
H      -0.23927107     -2.00573765     -0.37300129
H      -1.54940173     -3.97821265      0.27744410
H      -1.46165003     -2.70785220      4.39123765
H       0.27906136      2.28836088      2.63082056
H      -1.34885182      1.59765657      2.61964728
H      -0.99676324      3.02022301      1.64887917
H      -3.52323981     -0.41107882     -0.83906715
H      -4.38641861     -0.21731570      0.69338633
H      -3.86135622      2.08329656     -1.26348911
H      -4.70616101      2.21136361      0.27346694
H      -5.42724224      1.24181557     -1.03790243
H       0.39001919      2.43023921     -0.96380162
H       1.41027663      2.69289738      0.49089416
