46
CC[C@]12CCC3=C(CCc4cc(OC)ccc43)[C@@H]1CCC2=O
C      -3.22578099      2.09246397     -1.29437778
C      -2.68803064      0.71481454     -0.91733543
C      -2.61676839      0.44985256      0.61620470
C      -1.85981622      1.52368487      1.39334268
C      -0.38066331      1.55289124      0.95625454
C       0.23029556      0.19662448      0.61227713
C      -0.49899878     -0.94645098      0.61940973
C       0.10299782     -2.29040847      0.30274306
C       1.60473372     -2.35615337      0.57706808
C       2.32334091     -1.10123040      0.16022660
C       3.67970811     -1.16882366     -0.20027496
C       4.39412150     -0.01827699     -0.53252768
O       5.70142559     -0.23167192     -0.87046220
C       6.46992618      0.91290247     -1.21860894
C       3.74664910      1.21230646     -0.49003338
C       2.39698726      1.28884263     -0.11742696
C       1.66253672      0.14003095      0.21216543
C      -1.95302624     -0.89833712      1.00580251
C      -2.95568260     -1.94971921      0.53084024
C      -4.29637246     -1.37371392      1.00879811
C      -4.02006109      0.11856739      1.08834696
O      -4.84176548      0.94304456      1.46651679
H      -3.33194239      2.16384415     -2.38203948
H      -2.54671626      2.89042354     -0.98144553
H      -4.20872212      2.27565456     -0.85122119
H      -1.70410251      0.59691073     -1.38407909
H      -3.33866977     -0.02253299     -1.40353197
H      -2.31229559      2.51429438      1.27379752
H      -1.91264661      1.31538830      2.47094561
H      -0.31345254      2.19907901      0.07190732
H       0.20283823      2.03203542      1.75202263
H      -0.09543592     -2.51405150     -0.75318933
H      -0.37800522     -3.07827490      0.89365229
H       2.01996046     -3.22910267      0.05921771
H       1.77699323     -2.50249568      1.65131165
H       4.19033949     -2.12932201     -0.21843397
H       6.06124068      1.40819778     -2.10561165
H       6.54597890      1.60847287     -0.37629766
H       7.48150446      0.57460792     -1.46296555
H       4.25783550      2.13667245     -0.73675402
H       1.93757805      2.27307826     -0.09890237
H      -1.94481979     -0.99214661      2.10661372
H      -2.93861760     -2.07098330     -0.55770997
H      -2.77558415     -2.93445489      0.97394216
H      -5.10112982     -1.58620947      0.30185458
H      -4.54788498     -1.74032545      2.00814906
