36
CCOP(=S)(OCC)Oc1ccc(S(C)(=O)=O)cc1
C      -4.51426025     -2.62371002     -0.69237100
C      -3.08620476     -2.58450812     -0.18813316
O      -2.90913860     -1.40052012      0.57154773
P      -1.40264783     -0.96715246      0.98574347
S      -0.44722945     -2.21617858      2.12464949
O      -1.66949930      0.51302984      1.58717015
C      -2.46345459      0.63556724      2.75501151
C      -2.71681977      2.10706052      3.01150216
O      -0.76147836     -0.63886466     -0.46082897
C       0.45036365     -0.05259879     -0.69260856
C       1.21827390      0.58617584      0.28014622
C       2.44802176      1.15547288     -0.06326284
C       2.90346169      1.07510555     -1.38152630
S       4.46282517      1.80851031     -1.81591035
C       5.62747450      0.51333212     -1.48086359
O       4.45211451      2.04559813     -3.24698535
O       4.70862982      2.89243644     -0.88406879
C       2.12901159      0.45970922     -2.36599659
C       0.90218875     -0.10535692     -2.01453628
H      -4.69581970     -3.52724670     -1.28106609
H      -5.21982576     -2.59929711      0.14474914
H      -4.72731820     -1.74789294     -1.31423171
H      -2.89111534     -3.45478625      0.44538503
H      -2.39153766     -2.59741144     -1.03367889
H      -1.93346250      0.19634596      3.60528740
H      -3.41438612      0.11154913      2.61893669
H      -3.23263400      2.56341762      2.16012068
H      -1.77129161      2.64512677      3.13656068
H      -3.32471844      2.24790666      3.90953592
H       0.88619267      0.67285513      1.31032754
H       3.03414236      1.66470496      0.69956149
H       5.38897852     -0.35067372     -2.10403063
H       6.62534829      0.88341072     -1.72604176
H       5.57847551      0.25380839     -0.42167610
H       2.46326119      0.42078426     -3.40059613
H       0.29407838     -0.58570987     -2.77782218
