45
CCN(CC)c1ccc(N=Nc2c(C#N)cc([N+](=O)[O-])cc2C#N)c(C)c1
C      -5.08554070     -2.22760941      0.65228513
C      -4.75921145     -0.77185042      0.95404731
N      -3.98839576     -0.16598666     -0.14044920
C      -4.77963543      0.50703113     -1.17935571
C      -4.96101704      1.98382916     -0.85840472
C      -2.59938492     -0.22254965     -0.18568345
C      -1.84886914     -0.97578154      0.73037549
C      -0.44816442     -1.02830204      0.69215982
C       0.27179444     -0.31926315     -0.26989997
N       1.67798902     -0.40576150     -0.29332384
N       2.17023275      0.37426581      0.55282334
C       3.56950308      0.20505341      0.59406527
C       4.41745002      1.01268382     -0.18845188
C       3.87773340      2.01653208     -1.05987758
N       3.48695200      2.84055588     -1.77685045
C       5.81131606      0.85253945     -0.13115233
C       6.36489058     -0.11237953      0.71837741
N       7.82375595     -0.28049284      0.77892621
O       8.51353151      0.45050508      0.05699393
O       8.26808257     -1.14175290      1.54845073
C       5.53963164     -0.91457885      1.51437345
C       4.14691937     -0.75158276      1.45431177
C       3.31899609     -1.57718875      2.28699246
N       2.67567677     -2.25703797      2.97250574
C      -0.43692735      0.42182587     -1.22182933
C       0.27417850      1.22111122     -2.27737871
C      -1.84751528      0.47044943     -1.15345584
H      -5.66580537     -2.31705063     -0.27205349
H      -5.67668912     -2.65854337      1.46636786
H      -4.18044769     -2.83092677      0.53439173
H      -4.24567796     -0.67585321      1.91722238
H      -5.70279681     -0.22686118      1.08607102
H      -5.77253320      0.04363161     -1.24438851
H      -4.34428853      0.37176727     -2.17574290
H      -5.56882644      2.46598419     -1.63040257
H      -4.00264097      2.50888491     -0.80448634
H      -5.46647790      2.11791045      0.10369293
H      -2.33173776     -1.56036961      1.50702429
H       0.07938067     -1.63097660      1.42781923
H       6.45087090      1.48443704     -0.74921047
H       5.96557833     -1.66422090      2.18266285
H       1.14452133      0.68118997     -2.66362216
H      -0.38126150      1.41639487     -3.13294024
H       0.59547730      2.18076623     -1.86223368
H      -2.35061754      1.08957137     -1.89068012
