26
COc1cc(N)c2c(c1OC)C(=O)OC2
C       3.16234335     -1.41068573      0.66215120
O       2.48993038     -0.28527920      0.11433195
C       1.12132223     -0.33580157      0.04407040
C       0.32613011     -1.34956996      0.61400260
C      -1.07084626     -1.36375602      0.46542055
N      -1.83683610     -2.31874540      1.13645643
C      -1.65336765     -0.28208940     -0.17435107
C      -0.88098598      0.72468449     -0.72433847
C       0.50016860      0.72495861     -0.63114412
O       1.24352023      1.69403314     -1.24491830
C       1.52821299      2.75764745     -0.33677128
C      -1.76775067      1.70985573     -1.33655908
O      -1.46456641      2.74316720     -1.89689398
O      -3.04578148      1.26271223     -1.13896704
C      -3.07814004      0.02806782     -0.40057893
H       2.92074962     -2.32579465      0.11133308
H       2.93943508     -1.51920659      1.72847023
H       4.23837572     -1.23769850      0.56394668
H       0.78488554     -2.15219912      1.18298077
H      -1.34778860     -3.18815818      1.33276114
H      -2.75889251     -2.48946498      0.74754937
H       0.60991762      3.19973762      0.06508047
H       2.17268616      2.41831698      0.48109750
H       2.06422477      3.53507521     -0.88928122
H      -3.57556919     -0.73143116     -1.01020936
H      -3.62137751      0.19162397      0.53436048
