22
COc1cc(C(=O)O)ccc1C(=O)O
C      -0.85666956      1.60818842     -2.24995911
O      -1.47272443      0.76601003     -1.27627689
C      -0.66624855      0.19335651     -0.32272605
C       0.72099747      0.39387221     -0.25944605
C       1.49327615     -0.21903703      0.73951888
C       2.95462747      0.03537475      0.74873846
O       3.55409538      0.73817883     -0.04348822
O       3.58956774     -0.60129561      1.74663697
C       0.87872236     -1.04008626      1.68544251
C      -0.50089754     -1.24566129      1.63070620
C      -1.28642040     -0.63676206      0.63392361
C      -2.75373894     -0.93565920      0.68245466
O      -3.24008342     -1.66347211      1.53484720
O      -3.51068119     -0.35511263     -0.26980301
H      -1.64299147      1.97058410     -2.91904714
H      -0.13639784      1.04814401     -2.85501823
H      -0.39252317      2.48033889     -1.77830291
H       1.23612112      1.02624322     -0.97805281
H       4.53066763     -0.34939278      1.63543762
H       1.45785075     -1.52508565      2.46831837
H      -0.96636005     -1.88998260      2.37702450
H      -2.99018952      0.20125625     -0.88603315
