18
CCC(O)CC
C      -2.48718496     -0.47031587     -0.36587435
C      -1.20596669      0.31226890     -0.62180113
C       0.00260573     -0.30057619      0.09465797
O      -0.21810876     -0.28595291      1.50325623
C       1.28795128      0.46773630     -0.23264045
C       2.51601494     -0.15841183      0.41485992
H      -2.74883226     -0.47078563      0.69682011
H      -3.31959337     -0.02064111     -0.91644647
H      -2.38384877     -1.50882228     -0.69609040
H      -1.36023641      1.34271107     -0.27922647
H      -1.02010280      0.34730553     -1.70149152
H       0.11512301     -1.34800934     -0.20795317
H      -0.31899453      0.64099506      1.77944982
H       1.20481940      1.50261895      0.12102011
H       1.43576016      0.50038726     -1.31827008
H       2.44078873     -0.14726653      1.50664478
H       3.41528830      0.39922443      0.13451957
H       2.64451700     -1.19534669      0.08856552
