19
OCCCCCO
O      -2.87707848     -0.35437873     -0.77136054
C      -2.52292609     -0.18084936      0.59316236
C      -1.07282081     -0.59681669      0.80822411
C      -0.09561398      0.28448706      0.02483924
C       1.35153888     -0.13510386      0.27426940
C       2.32980757      0.73455050     -0.50422947
O       3.66250171      0.32268014     -0.22995480
H      -3.80937736     -0.09164197     -0.85945317
H      -3.18549692     -0.80302894      1.20303079
H      -2.67478287      0.86813038      0.86687135
H      -0.84013000     -0.54590480      1.87811934
H      -0.94459377     -1.63816593      0.48856891
H      -0.31235232      0.22054414     -1.04814360
H      -0.23024265      1.33220281      0.32000108
H       1.49497027     -1.18592496     -0.00665975
H       1.58599022     -0.07594158      1.34442069
H       2.15863083      0.66135774     -1.58304599
H       2.23514965      1.78498506     -0.21207444
H       3.74682614     -0.60118101     -0.52183371
