20
CCCCCCCl
C       3.16610478      0.06780172     -0.36714318
C       1.84350001     -0.64829550     -0.14481223
C       0.68916596      0.34193194      0.00743620
C      -0.63938644     -0.38241169      0.23090175
C      -1.79502973      0.60828981      0.38334303
C      -3.11454223     -0.11903483      0.60548835
Cl     -4.44494472      1.04844361      0.78027934
H       3.13448600      0.67692020     -1.27615984
H       3.40467530      0.72229362      0.47728598
H       3.97747979     -0.65904082     -0.47335981
H       1.91931953     -1.27293179      0.75284301
H       1.65061939     -1.31805482     -0.99093506
H       0.88904427      1.01208491      0.85242765
H       0.62035349      0.96695937     -0.89126983
H      -0.83916895     -1.05241936     -0.61424679
H      -0.57043498     -1.00729041      1.12971848
H      -1.86159535      1.23304725     -0.51599727
H      -1.59281576      1.27817850      1.22828347
H      -3.35368372     -0.77095241     -0.24007622
H      -3.08314664     -0.72551931      1.51562863
