48
CCCCCCCCCCCCOC(=O)C(C)O
C       6.42843769      0.73362352      2.04374536
C       5.74914726     -0.25847319      1.11319930
C       4.80186915      0.44436148      0.13994501
C       4.11934065     -0.56012347     -0.79074402
C       3.23695304      0.09897171     -1.85490267
C       2.07610917      0.94737850     -1.32536942
C       1.11237548      0.23957601     -0.36674179
C       0.40245810     -0.96122467     -0.99699206
C      -0.55519804     -1.67390780     -0.03621304
C      -1.76470106     -0.82447523      0.36189008
C      -2.74990328     -1.63055826      1.21381048
C      -3.93143215     -0.79305040      1.69720865
O      -4.74249535     -0.39110452      0.58207406
C      -4.70504702      0.92430083      0.24018823
O      -4.01170417      1.78381274      0.77371646
C      -5.59301513      1.20979009     -0.97457290
C      -7.01744782      0.72537243     -0.76512910
O      -5.64676215      2.61022350     -1.25697339
H       5.69113287      1.27960107      2.64093342
H       7.01931385      1.46093932      1.47788508
H       7.10102144      0.20999443      2.73029651
H       6.51492712     -0.81007298      0.55553484
H       5.19287404     -0.98972850      1.71117790
H       4.04950430      0.99963593      0.71117810
H       5.36275742      1.17485704     -0.45544857
H       3.53100125     -1.27339189     -0.20228692
H       4.88849003     -1.14888204     -1.30652723
H       3.86558054      0.73668890     -2.48943465
H       2.84386636     -0.68275597     -2.51559440
H       1.50662128      1.32423680     -2.18449742
H       2.47812867      1.83464189     -0.82167446
H       1.64371729     -0.07443338      0.53865077
H       0.36849860      0.97831392     -0.04728611
H       1.14618623     -1.69561700     -1.32609244
H      -0.14484445     -0.64092714     -1.89169521
H      -0.00932154     -1.98670718      0.86221881
H      -0.90856684     -2.59010557     -0.52569950
H      -2.26485631     -0.46151966     -0.54324644
H      -1.43709701      0.05276205      0.93026189
H      -2.22901224     -2.04431626      2.08515891
H      -3.12401365     -2.47329344      0.61979369
H      -4.56814193     -1.40910580      2.34141380
H      -3.59309660      0.05537983      2.30256923
H      -5.14027630      0.72032525     -1.84309214
H      -7.06142391     -0.35939740     -0.62806330
H      -7.46239725      1.19774538      0.11801547
H      -7.64599565      0.99358139     -1.62104778
H      -4.82356197      2.99705774     -0.89752742
