12
O=C1CCC(=O)N1Cl
O       0.90753382     -2.31855673     -0.06579266
C       0.53651852     -1.15424052     -0.03293854
C      -0.90692013     -0.74352186     -0.01848308
C      -0.88056186      0.77442965      0.02323696
C       0.57626970      1.13499909      0.02997905
O       0.98748540      2.28578941      0.06075297
N       1.29902885     -0.02246180     -0.00345431
Cl      3.01400925     -0.05211587     -0.00801615
H      -1.40147297     -1.15719940      0.86522162
H      -1.40537360     -1.10802617     -0.92143703
H      -1.36130761      1.15586558      0.92879485
H      -1.36520937      1.20503862     -0.85786369
