51
C=C1C(=O)O[C@@H]2/C=C(\CO)CC/C=C(\C)C[C@H](OC(=O)C(C)CO)[C@@H]12
C       0.29730409      1.16832101     -3.16850447
C      -0.25338616      0.12161669     -2.54156132
C      -0.80758187     -1.03952714     -3.26472141
O      -0.64088375     -1.30037326     -4.44208033
O      -1.53696612     -1.76609080     -2.37874597
C      -1.61735037     -1.10025966     -1.10024061
C      -2.98736557     -0.48297441     -0.99056892
C      -3.87889574     -0.48507827      0.02503119
C      -5.22184306      0.18808176     -0.20440072
O      -6.26155996     -0.76211255     -0.03047960
C      -3.76514650     -1.08390091      1.42335078
C      -2.41191370     -1.36386932      2.09413992
C      -1.56150509     -0.13766518      2.29371892
C      -0.28772122      0.07106132      1.90405311
C       0.40295213      1.36754046      2.25369289
C       0.56324184     -0.93053714      1.13937308
C       0.78090498     -0.59392808     -0.35848731
O       1.80569745      0.43030410     -0.45252987
C       3.09585273     -0.00616123     -0.50844731
O       3.44356814     -1.18010568     -0.46810183
C       4.04609728      1.16676376     -0.59832768
C       4.38040868      1.65187952      0.80997040
C       5.28460184      0.76314912     -1.40479698
O       6.11419970     -0.15539393     -0.69605778
C      -0.48528549     -0.06995100     -1.07666262
H       0.38506388      1.19087399     -4.25248044
H       0.67226130      2.02312346     -2.61449594
H      -1.48795183     -1.89287162     -0.36769938
H      -3.29008485      0.01794642     -1.91238004
H      -5.31714321      0.60458254     -1.21124529
H      -5.36941609      1.00535960      0.50760935
H      -6.02076041     -1.54405303     -0.55817723
H      -4.31308779     -0.42033879      2.10969603
H      -4.32498973     -2.02818102      1.41488291
H      -2.62257070     -1.76586676      3.09558562
H      -1.89258853     -2.17440538      1.58153274
H      -2.06166411      0.65376221      2.85460023
H      -0.22985288      2.02545732      2.86314337
H       0.66988400      1.92240165      1.34808276
H       1.31576466      1.17022707      2.82765961
H       1.53489492     -1.00396261      1.64785503
H       0.13542253     -1.93466286      1.21216361
H       1.12594413     -1.50382657     -0.86912803
H       3.54139509      1.96989636     -1.15383508
H       4.84444806      0.86084342      1.41496674
H       3.47033466      1.96615239      1.33774863
H       5.05646673      2.50986646      0.77522771
H       5.88862633      1.64957594     -1.62117619
H       5.00812872      0.30804634     -2.36430133
H       5.58150485     -0.96307095     -0.54763231
H      -0.79745396      0.88233520     -0.63040305
