39
Cc1c(OCC(F)(F)F)ccnc1CS(=O)c1nc2ccccc2[nH]1
C      -1.77463497      0.76298338      1.07159385
C      -2.11500105     -0.15526811     -0.07227336
C      -3.45570932     -0.34803139     -0.45793046
O      -4.39245705      0.35315515      0.25663757
C      -5.76194509      0.25346420     -0.14843951
C      -6.64145690      1.13321561      0.72724999
F      -6.29739729      2.43633923      0.64023600
F      -7.93600068      1.03154178      0.33916527
F      -6.58271607      0.76780634      2.02657899
C      -3.75599405     -1.21955142     -1.50033623
C      -2.71475872     -1.88425307     -2.11693781
N      -1.42408973     -1.74547251     -1.76319002
C      -1.12764840     -0.89329282     -0.74516004
C       0.33862779     -0.80486163     -0.40437851
S       1.19509520      0.37595337     -1.48915250
O       0.78783707      1.77823321     -1.12790180
C       2.83111025      0.17456598     -0.76010280
N       3.40090932     -0.97404637     -0.46956903
C       4.62248880     -0.63885473      0.06459666
C       5.64711887     -1.46609221      0.54620466
C       6.80986968     -0.87004170      1.05147548
C       6.94921299      0.52020748      1.07711690
C       5.93784856      1.36282462      0.60088149
C       4.79111106      0.74246930      0.10206417
N       3.63040608      1.23549087     -0.43209407
H      -2.53780530      1.53284830      1.22366696
H      -1.67729384      0.18373751      1.99512443
H      -0.84289984      1.30486058      0.89080387
H      -6.10195531     -0.78387568     -0.05053058
H      -5.86719195      0.58153907     -1.18902176
H      -4.76313965     -1.40732737     -1.84723432
H      -2.89755270     -2.57461506     -2.93573995
H       0.79164239     -1.79136224     -0.55719525
H       0.50215281     -0.53474659      0.64305478
H       5.53377105     -2.54421361      0.52407448
H       7.61281971     -1.49973119      1.42785877
H       7.86313531      0.95730709      1.47521802
H       6.04741069      2.44172652      0.62110047
H       3.37508029      2.20536810     -0.55580549
