29
O=C1C(Cl)C(CCl)CN1c1cccc(C(F)(F)F)c1
O       1.18809717     -2.92097524     -0.13346769
C       1.48031961     -1.73536584     -0.07527896
C       2.91084536     -1.23475820      0.03759079
Cl      3.42510410     -1.42781287      1.73082458
C       2.79394690      0.21604531     -0.42431715
C       3.89627410      1.14904859      0.05228075
Cl      3.72215028      2.76106643     -0.68819050
C       1.40035620      0.60963862      0.04552371
N       0.63015289     -0.61209604     -0.05609814
C      -0.79253728     -0.62854686     -0.02044160
C      -1.52416757     -1.81045384     -0.18604282
C      -2.92297056     -1.81378577     -0.14801466
C      -3.62247194     -0.62925346      0.05548832
C      -2.92668160      0.57252464      0.21754276
C      -3.66615659      1.86356892      0.46571153
F      -4.93782420      1.86071243     -0.02168397
F      -3.05356776      2.94039882     -0.10216646
F      -3.77206415      2.15191918      1.79173749
C      -1.51752378      0.55770863      0.18519285
H       3.57706928     -1.81316564     -0.60876626
H       2.78929975      0.20358282     -1.52497470
H       3.87885384      1.29935262      1.13524057
H       4.88130433      0.76597920     -0.23094550
H       0.98708251      1.38772682     -0.60426085
H       1.38988528      0.94563129      1.08881477
H      -1.03666489     -2.76568115     -0.35643043
H      -3.46117167     -2.75029100     -0.27777356
H      -4.71077966     -0.64810537      0.08701992
H      -1.00615993      1.50538696      0.33895884
