25
CCOC(=O)N1C(=O)c2ccccc2C1=O
C       4.53495925     -0.83477016      0.67952112
C       3.75250896      0.15560681     -0.16057114
O       2.35878901     -0.14578234     -0.02264003
C       1.52299431      0.66998521     -0.72880925
O       1.92629952      1.60193006     -1.41709440
N       0.19482373      0.38741868     -0.48681157
C      -0.32321160     -0.02484421      0.71853359
O       0.21558371     -0.27760856      1.78009655
C      -1.77220540     -0.08963827      0.54731749
C      -2.76286986     -0.45196030      1.43988255
C      -4.08356451     -0.40660080      0.98262728
C      -4.37798953     -0.00467418     -0.33648155
C      -3.35654827      0.35906684     -1.21945865
C      -2.06065250      0.30734837     -0.74272510
C      -0.79647947      0.61229401     -1.40752765
O      -0.74231806      0.92924247     -2.58098896
H       5.60942281     -0.64459113      0.60737613
H       4.23400646     -0.77098589      1.73047754
H       4.33441428     -1.86049237      0.35274738
H       4.04829941      0.06452559     -1.21163540
H       3.94720521      1.17446761      0.19236805
H      -2.52315042     -0.75779856      2.45362440
H      -4.89639780     -0.68406973      1.65210586
H      -5.41435829      0.02235462     -0.66981616
H      -3.56956095      0.66957621     -2.23781962
