15
O=c1[nH]c(=O)c2nc[nH]c2[nH]1
O      -2.78028959      1.61520647     -0.22201510
C      -1.81265434      0.86368945     -0.13847796
N      -1.96518081     -0.50809364     -0.10231195
C      -0.96703077     -1.46911424     -0.00998829
O      -1.22341122     -2.66850356      0.01417633
C       0.36263484     -0.89377816      0.05157069
N       1.59097691     -1.49915873      0.14607498
C       2.45710860     -0.50541086      0.16568422
N       1.83921304      0.71896606      0.08769486
C       0.50504695      0.46901785      0.01508918
N      -0.52671882      1.35936119     -0.07693252
H      -2.90901102     -0.85707451     -0.14797366
H       3.53274168     -0.60630876      0.23423112
H       2.30016672      1.61797779      0.08587902
H      -0.40359217      2.36322364     -0.10270092
