28
COC(=O)C1(S(=O)(=O)c2ccccc2)CC1
C       3.18249595     -0.19864093      2.09193990
O       2.72580875      0.40256485      0.88018987
C       1.65315671     -0.21949886      0.32311727
O       1.10826489     -1.22560608      0.75277931
C       1.20922134      0.43813153     -0.90555404
S      -0.18759868      1.56183206     -0.67815254
O       0.19616693      2.50176040      0.35822102
O      -0.60944299      2.04210169     -1.98245379
C      -1.50291000      0.55281685     -0.04433770
C      -2.28980639     -0.18447201     -0.93429471
C      -3.33632284     -0.96301966     -0.44067114
C      -3.59804774     -0.99373597      0.93008325
C      -2.82027421     -0.24140744      1.81200159
C      -1.77232609      0.54086382      1.32704052
C       1.24697414     -0.27609450     -2.23814920
C       2.18165439      0.87424632     -1.98036250
H       3.52476556     -1.22139385      1.90582418
H       2.39171099     -0.18548671      2.84862862
H       4.02736313      0.38746642      2.46385186
H      -2.10370578     -0.15278972     -2.00514230
H      -3.95321739     -1.54243612     -1.12340217
H      -4.41508198     -1.60129279      1.31229340
H      -3.03364116     -0.26364275      2.87802616
H      -1.17742169      1.12952391      2.02157479
H       1.66771286     -1.27572110     -2.26835142
H       0.44759184     -0.12337058     -2.95460217
H       3.23448511      0.65255854     -1.84375259
H       2.00242436      1.80630205     -2.50634546
