26
CC1=NN(c2ccc(C)cc2)C(=O)C1
C      -4.32967069      0.94526252      0.06079686
C      -3.08174937      0.14824435     -0.09413071
N      -1.88975249      0.63926656      0.03378876
N      -1.01162475     -0.40960452     -0.18271984
C       0.38086150     -0.15369243     -0.10413582
C       1.33305875     -1.15924097     -0.30805042
C       2.70423944     -0.88305014     -0.22603445
C       3.15599279      0.40955214      0.05189123
C       4.62281958      0.69554493      0.17251655
C       2.21455179      1.41710497      0.27181172
C       0.84551097      1.13813903      0.18915887
C      -1.64943183     -1.62957772     -0.46227046
O      -1.19856260     -2.73867464     -0.69941407
C      -3.11346343     -1.30844730     -0.41561248
H      -4.93099785      0.52288355      0.86994267
H      -4.90209960      0.90625564     -0.86953622
H      -4.09159973      1.98620164      0.29417051
H       1.04078993     -2.18069890     -0.53237161
H       3.41479195     -1.69184374     -0.38332173
H       5.20368397      0.04212420     -0.48693285
H       4.95108043      0.53896296      1.20462948
H       4.84464021      1.72818321     -0.11678032
H       2.53492158      2.42908822      0.50853736
H       0.14283487      1.95009432      0.36111974
H      -3.58085608     -1.47622979     -1.38757558
H      -3.60996934     -1.86584810      0.38069411
