51
Cc1cc(CC(C)CC(C)(C)C)n(O)c(=O)c1.NCCO
C       4.47695285      2.24774228      0.94028667
C       3.92625582      0.99223367      0.33525513
C       2.58418190      0.59733055      0.73190160
C       2.00714371     -0.51057356      0.22749680
C       0.61858347     -0.94294655      0.63976155
C      -0.53719169     -0.21354418     -0.09991980
C      -0.50824698     -0.50403959     -1.60042707
C      -1.87410709     -0.61899051      0.57602103
C      -3.20098684      0.07794859      0.15234291
C      -3.80389441     -0.55181907     -1.11596689
C      -3.02327922      1.58973309     -0.04975186
C      -4.22518090     -0.13682592      1.29176229
N       2.73688775     -1.27082427     -0.65933904
O       2.13046430     -2.43902968     -1.16887896
C       4.01322374     -0.99215203     -1.10064727
O       4.62783919     -1.69664221     -1.89847656
C       4.61925219      0.24259639     -0.53946277
N      -1.06161344     -0.60619259      0.60309384
C      -0.39652433     -0.05091879     -0.58374544
C       0.93480532      0.59271218     -0.18524158
O       1.71312931     -0.34486261      0.55558140
H       4.52310476      2.16135453      2.03118799
H       3.84633621      3.10640674      0.68594131
H       5.48948329      2.46235364      0.58164857
H       2.05372669      1.22307688      1.44464293
H       0.51956459     -0.74838312      1.71751277
H       0.49764709     -2.02909393      0.54524492
H      -0.38949698      0.86466004      0.04013309
H      -0.77357194     -1.54521819     -1.80988638
H      -1.19531430      0.14886372     -2.14224371
H       0.47791309     -0.31088495     -2.03257185
H      -1.74155675     -0.43264482      1.65181142
H      -2.00140625     -1.70691262      0.48620381
H      -3.21652580     -0.34427873     -2.01142971
H      -3.88998572     -1.63950624     -1.01523125
H      -4.81022932     -0.15991695     -1.30653030
H      -2.57934125      2.05622756      0.83674414
H      -2.38116177      1.81397344     -0.90701665
H      -3.98692740      2.07878969     -0.23366988
H      -4.38613536     -1.20418814      1.48170379
H      -3.88242355      0.32204396      2.22622637
H      -5.19608587      0.30806706      1.04505713
H       2.83433530     -2.77722917     -1.76104217
H       5.62015345      0.48224261     -0.87359629
H      -1.93520768     -1.04816200      0.31414587
H      -1.32990384      0.15684714      1.22628139
H      -1.04416008      0.67894239     -1.07901781
H      -0.20786382     -0.87576441     -1.27898009
H       1.50227608      0.89543864     -1.06987188
H       0.77212005      1.47334999      0.44460657
H       1.05294245     -0.87138994      1.05314772
