48
CCCCCCCCCCCC(=O)OCCS(=O)(=O)[O-].[Na+]
C      -5.06750607     -1.39313184      2.20715476
C      -5.55081430      0.04869335      2.17948410
C      -4.47586679      1.04562742      1.74107618
C      -4.03571808      0.86218186      0.28612738
C      -3.03374050      1.94298212     -0.12756284
C      -2.63985973      1.87651978     -1.60641687
C      -1.99203198      0.56740060     -2.06804949
C      -0.70381743      0.22555555     -1.31519790
C      -0.03929927     -1.02407224     -1.89894212
C       1.18947330     -1.48329672     -1.10964014
C       2.34551556     -0.48434365     -1.15006954
C       3.58516355     -1.02821587     -0.47582272
O       3.65405759     -2.09667675      0.11210380
O       4.59668364     -0.13047428     -0.62398906
C       5.86503578     -0.47918034     -0.02255930
C       5.88300999     -0.08103877      1.43757278
S       7.52830361     -0.12121791      2.09093225
O       7.96385335     -1.49263700      1.84128446
O       7.33027740      0.21693855      3.49864710
O       8.22487513      0.89889403      1.30978906
Na      0.00000000      0.00000000      0.00000000
H      -4.83444379     -1.75797490      1.20262693
H      -4.17340054     -1.49633947      2.83000894
H      -5.84584173     -2.04178206      2.62190562
H      -6.42431067      0.12819609      1.52197747
H      -5.88682715      0.32201326      3.18690634
H      -4.87663576      2.05874451      1.86982353
H      -3.60583724      0.96348680      2.40396460
H      -3.57973684     -0.12542132      0.16459264
H      -4.91237425      0.90293685     -0.37118408
H      -2.13928802      1.88186372      0.50298781
H      -3.47370004      2.93065143      0.06009870
H      -1.95238344      2.70509742     -1.81796006
H      -3.53259540      2.05481355     -2.21888100
H      -1.76727455      0.66038369     -3.13818133
H      -2.70723120     -0.25809483     -1.97648938
H      -0.92322527      0.05204889     -0.25589476
H      -0.01782677      1.07775239     -1.37372521
H      -0.76650036     -1.84556542     -1.90749985
H       0.24230440     -0.84088706     -2.94303152
H       1.52574628     -2.44177546     -1.52538710
H       0.90685752     -1.68236053     -0.06830168
H       2.59631004     -0.25543253     -2.19191088
H       2.06707822      0.44084552     -0.63519490
H       6.62450142      0.06691441     -0.59169698
H       6.07687707     -1.54592257     -0.16240806
H       5.26169486     -0.75691275      2.03389853
H       5.49046846      0.93221250      1.57461278
