45
CC(C)C(NS(=O)(=O)c1ccc(F)cc1)C(=O)NC1CCOC1O
C      -0.30060944     -1.63826556      2.74044310
C      -0.94440659     -0.35263724      2.20491420
C      -2.45269744     -0.58721196      2.04892336
C      -0.29144825      0.07715417      0.87162013
N      -0.96936684      1.29092981      0.36432836
S      -1.15767628      1.51360802     -1.27812699
O      -0.03834956      0.87699800     -1.94072287
O      -1.46614070      2.91037187     -1.47545483
C      -2.62916126      0.57907314     -1.60758301
C      -2.53821259     -0.67527959     -2.22209313
C      -3.70509792     -1.39593416     -2.47995462
C      -4.94002330     -0.85530675     -2.13138081
F      -6.05622331     -1.55169339     -2.38059720
C      -5.03485696      0.39747172     -1.53213986
C      -3.87380173      1.12527594     -1.27054097
C       1.19484607      0.46690965      1.04734858
O       1.66037080      0.87197282      2.10923363
N       1.94652371      0.37159275     -0.10782067
C       3.31811871      0.88385662     -0.14826373
C       3.92749852      0.67695693     -1.52001424
C       4.45746382     -0.73909086     -1.43339752
O       4.79499967     -0.99420703     -0.06456764
C       4.31134999      0.09646325      0.72757525
O       5.42447930      0.91705855      1.05291900
H      -0.41070137     -2.46238125      2.02713013
H       0.76693053     -1.50362871      2.93843755
H      -0.76997196     -1.94313620      3.68213011
H      -0.80503930      0.43615857      2.95584297
H      -2.88912660     -0.94513800      2.98777552
H      -2.97518866      0.33691283      1.78296769
H      -2.66019402     -1.33341116      1.27444353
H      -0.37025258     -0.74667027      0.15263218
H      -0.86375561      2.15212803      0.90404934
H      -1.57498983     -1.09450794     -2.50312472
H      -3.66301441     -2.37206697     -2.95402927
H      -6.01139318      0.79819468     -1.27747636
H      -3.94272305      2.10759832     -0.80781777
H       1.41372143      0.42397690     -0.97860712
H       3.28064983      1.94518646      0.12138922
H       4.76717922      1.36944400     -1.65699079
H       3.23688081      0.81699641     -2.35676673
H       3.69311462     -1.46601425     -1.72850085
H       5.33866977     -0.89264946     -2.06298013
H       3.87609628     -0.29149536      1.65258062
H       5.92552970      0.39843669      1.70396415
