29
CCOC(=O)C1OC1(C)c1ccccc1
C       5.18700418     -0.36099826     -0.31286167
C       4.08758173      0.49756595      0.28129050
O       2.83862861      0.07200261     -0.27319794
C       1.76086734      0.75387716      0.19654303
O       1.78708081      1.67934697      0.99553517
C       0.50042322      0.28289749     -0.40318602
O       0.27949558     -1.13660184     -0.39243521
C      -0.58023298     -0.35617895      0.45913168
C      -0.34247656     -0.62175797      1.91969468
C      -2.02077019     -0.17690751      0.03410320
C      -2.76176755     -1.23532514     -0.51826843
C      -4.09337373     -1.06776418     -0.90641596
C      -4.71417966      0.16770503     -0.74690579
C      -4.00437856      1.23269066     -0.19981704
C      -2.67273092      1.05950486      0.18620343
H       5.01366589     -1.41873743     -0.08866436
H       6.16471806     -0.07165924      0.08239694
H       5.20392904     -0.26534745     -1.40358041
H       4.07062948      0.37523068      1.37015154
H       4.26365589      1.54968852      0.03082575
H       0.19075682      0.82664608     -1.28661116
H      -0.98915218     -1.43179478      2.27400909
H       0.69183139     -0.91906934      2.12343693
H      -0.55961728      0.27392238      2.51091131
H      -2.28878749     -2.20698644     -0.65035244
H      -4.64265951     -1.90303574     -1.33286871
H      -5.75007751      0.29984897     -1.04779534
H      -4.48566597      2.19873304     -0.07124441
H      -2.13439792      1.90250385      0.61595561
