17
Nc1nc(N)c(N=O)c(N)n1
N       2.86816871      0.25898180      0.71838905
C       1.54422667      0.13870282      0.35503281
N       0.96054830      1.20183950     -0.20197269
C      -0.33034918      1.07456601     -0.56084975
N      -0.87609328      2.21405927     -1.17304189
C      -1.05224592     -0.10731298     -0.39090032
N      -2.37377587     -0.21913236     -0.77840142
O      -3.13454217     -0.30095810      0.19475292
C      -0.33349463     -1.15511330      0.18922760
N      -0.87994727     -2.43468957      0.37564316
N       0.95697518     -1.04274973      0.55471683
H       3.31109571     -0.64938867      0.72760413
H       3.31502760      0.98429589      0.17479278
H      -0.19396298      2.96552113     -1.11365559
H      -1.77672021      2.46909152     -0.77937858
H      -1.79429080     -2.39774062      0.81766706
H      -0.21061985     -2.99997262      0.89037388
