69
CCCCCCCCCCCC(=O)NCCC[N+](C)(C)C.COS(=O)(=O)[O-]
C      -6.67723907      1.95294011      2.19724579
C      -6.75258630      0.72246887      1.30558359
C      -6.29607946      1.03880194     -0.11906433
C      -6.45121136     -0.13923170     -1.08604089
C      -5.67710952     -1.41023448     -0.72133759
C      -4.16984071     -1.18582390     -0.58469413
C      -3.42760726     -2.50809431     -0.37407050
C      -1.94773756     -2.32224306     -0.02440052
C      -1.14623670     -1.62174221     -1.12393460
C       0.36131269     -1.59987564     -0.85442442
C       0.74173706     -0.81249327      0.39901103
C       2.24592200     -0.66417003      0.54921501
O       3.05847771     -1.10214719     -0.25919412
N       2.60578744      0.06771813      1.66591740
C       3.95762868      0.13117248      2.20050555
C       5.10322597      0.25272354      1.19175307
C       4.93423489      1.43951475      0.24469732
N       5.84137161      1.36739745     -1.00333996
C       5.37405855      0.24178923     -1.93128381
C       5.70758428      2.68711039     -1.76256657
C       7.30097077      1.15972908     -0.63820251
C      -1.24901098      0.26880897     -0.01599567
O      -0.15662954     -0.06495854      0.81093508
S       1.28721066     -0.28528296      0.08201405
O       2.18836720     -0.56832896      1.19379130
O       1.05261254     -1.41316021     -0.81530875
O       1.53281046      0.98609243     -0.59362756
H      -5.65455023      2.34062700      2.24672226
H      -6.99520578      1.70313260      3.21415193
H      -7.32991742      2.74794112      1.82438479
H      -6.12549073     -0.06390655      1.74034683
H      -7.78427030      0.35029146      1.29344837
H      -6.88983482      1.87616920     -0.50813130
H      -5.25458043      1.38143991     -0.10851667
H      -7.51522153     -0.39383380     -1.16959028
H      -6.13634504      0.19052154     -2.08415333
H      -6.07390948     -1.83665449      0.20679690
H      -5.86118981     -2.15559879     -1.50561590
H      -3.79795595     -0.69057749     -1.48850937
H      -3.96779792     -0.52093202      0.26197950
H      -3.51887551     -3.12873381     -1.27386682
H      -3.90355571     -3.06467498      0.44349835
H      -1.87502733     -1.75752481      0.91207357
H      -1.51222467     -3.31047013      0.16620638
H      -1.49776015     -0.59117406     -1.24857441
H      -1.31854683     -2.13568182     -2.07771480
H       0.85638042     -1.15651318     -1.72763701
H       0.73826597     -2.62663151     -0.77466615
H       0.36597276     -1.32038989      1.29292894
H       0.30198008      0.19081633      0.35936043
H       1.86352995      0.21591417      2.34337580
H       3.97743824      0.98622025      2.88681992
H       4.10251803     -0.77376280      2.80166710
H       5.20765854     -0.69292691      0.65402104
H       6.03628064      0.37080540      1.75629894
H       5.19302374      2.36623471      0.77077176
H       3.91068921      1.54105682     -0.12985732
H       5.96518684      0.29027567     -2.85063829
H       4.31659829      0.39694749     -2.15758561
H       5.54076947     -0.71951931     -1.44351643
H       6.08052884      3.49184298     -1.12344779
H       6.30284043      2.62224263     -2.67803873
H       4.65247600      2.84410349     -2.00380083
H       7.42028478      0.16863603     -0.19306764
H       7.89997234      1.22826103     -1.55170449
H       7.59320140      1.94071635      0.07058254
H      -2.14094861      0.35936523      0.61039428
H      -1.43058852     -0.51158378     -0.76047724
H      -1.08382322      1.22904781     -0.51172548
