36
CCCC(=O)OC(C)(C)Cc1ccccc1
C       4.40057498      2.07571513     -0.07651143
C       3.44003147      1.09524835      0.57611689
C       2.46856939      0.50231176     -0.44099615
C       1.50014692     -0.46448549      0.20020653
O       1.51964594     -0.80710555      1.37245803
O       0.60862624     -0.88307005     -0.73664947
C      -0.45518810     -1.81313056     -0.39693548
C       0.14404446     -3.16122412      0.04245375
C      -1.20059258     -2.05202024     -1.72180571
C      -1.41771962     -1.27336926      0.69734477
C      -2.06462140      0.06584342      0.41394017
C      -1.46206331      1.25363591      0.85127871
C      -2.05446790      2.48994501      0.58867421
C      -3.25883160      2.55268400     -0.10849057
C      -3.87448045      1.37909766     -0.53800735
C      -3.28311007      0.14204791     -0.27534834
H       3.85887367      2.90876890     -0.53577490
H       4.99654650      1.58376485     -0.85183398
H       5.08724707      2.48740701      0.66973586
H       4.01287236      0.29384531      1.05793358
H       2.88338479      1.60748947      1.37013127
H       3.02347549     -0.03515605     -1.21793718
H       1.88941740      1.30747690     -0.90738462
H       0.63972759     -3.09069247      1.01542270
H       0.90249671     -3.50259165     -0.67121566
H      -0.62950250     -3.93253952      0.12474726
H      -2.07175408     -2.70137201     -1.58686453
H      -0.53714567     -2.51902310     -2.45986321
H      -1.52678965     -1.10953782     -2.17428678
H      -2.21388898     -2.01013341      0.87407391
H      -0.89622677     -1.19517880      1.65918672
H      -0.53098746      1.22340757      1.41295290
H      -1.57804630      3.40353383      0.93424662
H      -3.72064404      3.51519727     -0.31107669
H      -4.81761658      1.42636785     -1.07592494
H      -3.78200394     -0.76315801     -0.61355816
