48
CN1CCN(c2cc3c(cc2F)c(=O)c(C(=O)O)cn3-c2ccc(F)cc2)CC1
C       4.83274616     -2.41306491      2.07926028
N       4.33413961     -2.49342947      0.70783988
C       4.55313993     -1.22520667     -0.02655734
C       3.63307585     -0.05369427      0.39414752
N       2.21306608     -0.45815508      0.29650731
C       1.23366795      0.54433852      0.42359261
C      -0.05773577      0.28208483     -0.08379255
C      -1.10642825      1.22267561     -0.03848346
C      -0.83527823      2.46246084      0.56683277
C       0.42889155      2.75740396      1.07713035
C       1.44326762      1.80897818      0.99699054
F       2.62668131      2.13793865      1.52762841
C      -1.90898435      3.47201319      0.68666362
O      -1.70210842      4.57821982      1.18393137
C      -3.25488440      3.12186719      0.20040896
C      -4.41700428      4.03112090      0.28358952
O      -5.54011812      3.71938488     -0.08737965
O      -4.14111897      5.24626807      0.80293017
C      -3.40601523      1.91394315     -0.36248017
N      -2.42166388      0.94089531     -0.54315425
C      -2.77379008     -0.25783618     -1.24049318
C      -3.79245496     -1.09699876     -0.74744468
C      -4.13207513     -2.27468537     -1.41812034
C      -3.46454482     -2.61183964     -2.58941226
F      -3.78499565     -3.74626944     -3.22621953
C      -2.46764976     -1.79242248     -3.10732899
C      -2.12546745     -0.61492845     -2.43595486
C       1.92586652     -1.68394481      1.08052738
C       2.89200118     -2.82544291      0.67573835
H       4.31719956     -1.66182061      2.68585829
H       4.72760735     -3.38266744      2.58307474
H       5.89997943     -2.17569992      2.08377319
H       4.39312766     -1.42430132     -1.09293334
H       5.60005816     -0.91882796      0.06410668
H       3.87945865      0.24215045      1.41728346
H       3.83467377      0.79555242     -0.26686395
H      -0.22655876     -0.69121362     -0.53542426
H       0.63746036      3.71356646      1.54747791
H      -3.20440781      5.35527875      1.09991432
H      -4.37906940      1.62498607     -0.76553271
H      -4.30965493     -0.84660623      0.17519863
H      -4.90693690     -2.92962773     -1.03061467
H      -1.96310650     -2.07452742     -4.02916301
H      -1.35243072      0.02718556     -2.85436796
H       0.90338162     -2.04073127      0.91148525
H       2.02220814     -1.46773854      2.15307544
H       2.69497943     -3.70594820      1.29733469
H       2.64780490     -3.13068414     -0.35046961
