23
CN(C)Cc1ccccc1
C      -3.08222039     -0.54083405     -0.15646393
N      -1.73520021     -0.18116292      0.28857087
C      -1.72415045      1.20070056      0.77540305
C      -0.77350260     -0.37079175     -0.81286051
C       0.67444397     -0.26379481     -0.38035110
C       1.54096877      0.64625789     -1.00289760
C       2.87950366      0.72954579     -0.61387992
C       3.36631137     -0.09686961      0.39747920
C       2.51631842     -1.00792058      1.02130625
C       1.17848508     -1.09282901      0.63329460
H      -3.42396127      0.08330513     -0.99023984
H      -3.11677207     -1.58931102     -0.47303503
H      -3.79942522     -0.44083938      0.66599837
H      -1.97264369      1.91933402     -0.01414422
H      -2.44735186      1.32440966      1.58972032
H      -0.74826405      1.46938351      1.19319912
H      -0.98102059      0.33448788     -1.62891661
H      -0.89200049     -1.37640273     -1.23910867
H       1.17841481      1.29806604     -1.79398839
H       3.54287621      1.43972170     -1.10029535
H       4.40773795     -0.03050336      0.70036279
H       2.89255942     -1.65168878      1.81166771
H       0.51889323     -1.80226418      1.12917888
