27
Cc1ccc2c(c1)C(=O)c1ccccc1C2=O
C       4.36699740      1.01814464     -0.91875169
C       3.08312297      0.37972812     -0.47550225
C       3.09974776     -0.80769020      0.26597797
C       1.90583374     -1.38482075      0.70499922
C       0.68151978     -0.77173077      0.41451442
C       0.65570154      0.41761612     -0.31009553
C       1.85465690      0.99577202     -0.75027570
C      -0.62905472      1.07846046     -0.61684552
O      -0.65289396      2.12647000     -1.25189473
C      -1.88553796      0.45992216     -0.14856738
C      -3.11042065      1.07656007     -0.43533538
C      -4.30323103      0.49906190      0.00324682
C      -4.27688890     -0.69238883      0.72742943
C      -3.05768530     -1.30864600      1.01445864
C      -1.85926586     -0.73096657      0.57530305
C      -0.57452485     -1.39004248      0.88411884
O      -0.55128737     -2.43638190      1.52189855
H       5.13875428      0.26167164     -1.09571402
H       4.72246376      1.71396236     -0.15262420
H       4.22715425      1.56475801     -1.85728179
H       4.04403857     -1.29313278      0.50652028
H       1.93551816     -2.31143646      1.27587101
H       1.82919119      1.92996693     -1.31048648
H      -3.13916915      2.00688314     -1.00019920
H      -5.25321880      0.97953692     -0.22054779
H      -5.20629431     -1.14262300      1.06935202
H      -3.04522746     -2.23865477      1.58043139
