44
CCCCC(O)(CCCC)C(O)c1ccccc1
C       4.51676546     -0.71171384     -0.00531104
C       3.17690757     -0.00373771      0.13340016
C       2.09061091     -0.70518418     -0.68140340
C       0.75480478      0.05369280     -0.75418986
C      -0.02570938      0.27020464      0.56580694
O       0.71345538      1.19473115      1.39299151
C      -0.15114116     -1.02258829      1.41986317
C      -0.86891447     -2.19865670      0.74939005
C      -0.84473773     -3.43887924      1.64593608
C      -1.56012255     -4.61163145      0.99424807
C      -1.44174713      0.90035410      0.29561209
O      -2.01660410      1.28674098      1.55798310
C      -1.49665975      2.09740646     -0.63950627
C      -0.85829587      3.30704447     -0.32562238
C      -0.93068611      4.39849764     -1.19317773
C      -1.64541969      4.29789011     -2.38408516
C      -2.28826818      3.10600275     -2.70901428
C      -2.21603449      2.01309089     -1.84285101
H       5.27871497     -0.20060794      0.59149723
H       4.45047336     -1.74754654      0.34262915
H       4.85122160     -0.71930087     -1.04761434
H       2.90762381      0.01409412      1.19388382
H       3.28405033      1.03495037     -0.19917504
H       1.93543248     -1.71927318     -0.29740391
H       2.45163219     -0.82745595     -1.71117290
H       0.11096017     -0.48150466     -1.46382458
H       0.97413890      1.02900707     -1.20708196
H       0.08624454      1.45458245      2.09763314
H      -0.66464536     -0.78441762      2.36153615
H       0.85008444     -1.34081937      1.73858525
H      -1.91090098     -1.93574200      0.53956502
H      -0.39603829     -2.44083356     -0.20800920
H      -1.32368789     -3.21395909      2.60599491
H       0.19206583     -3.72448087      1.85860313
H      -1.53023678     -5.48637461      1.65137866
H      -1.08537953     -4.88274141      0.04585423
H      -2.60954503     -4.37055040      0.79700169
H      -2.10106718      0.12949540     -0.11658200
H      -2.67446259      1.97951019      1.36694577
H      -0.29022707      3.40749354      0.59683954
H      -0.42426342      5.32622470     -0.93898981
H      -1.69885105      5.14765384     -3.05952079
H      -2.84529231      3.02660232     -3.63913037
H      -2.72624862      1.09272947     -2.11951283
