15
Cc1cc(C)[nH]n1
C      -2.62221935     -0.19226531     -0.09286088
C      -1.17771736      0.11912859      0.01763447
C      -0.07913559     -0.73952476     -0.21469358
C       1.03686519      0.03056790      0.02359121
C       2.48264279     -0.27110869     -0.04294421
N       0.56230918      1.26430378      0.37312456
N      -0.77729098      1.34433205      0.37716185
H      -2.77969426     -1.23245091     -0.39548609
H      -3.09844692      0.45288577     -0.83813936
H      -3.12275589     -0.04003245      0.86877316
H      -0.10255982     -1.77776583     -0.51486025
H       2.97862122      0.37589981     -0.77349027
H       2.65318966     -1.31060756     -0.34073094
H       2.95431977     -0.11688583      0.93278548
H       1.09187237      2.09352344      0.62013484
