29
CC(C)CC(=O)Oc1ccc([N+](=O)[O-])cc1
C      -3.30929653     -1.36629060     -0.09006230
C      -3.22283636      0.14846892     -0.29383475
C      -4.54829662      0.80055142      0.10388094
C      -2.07099135      0.75929418      0.51893111
C      -0.70438149      0.39037452     -0.02069872
O      -0.47564203     -0.01377967     -1.15244168
O       0.23761185      0.62638673      0.97821600
C       1.53915650      0.31949834      0.58042604
C       2.36026905      1.34590751      0.11362896
C       3.67565120      1.05549147     -0.25230341
C       4.15257472     -0.25950761     -0.13176698
N       5.53669522     -0.56747822     -0.51496003
O       5.92490561     -1.73715713     -0.38386147
O       6.23719483      0.36150299     -0.94202844
C       3.32434271     -1.28206208      0.35751061
C       2.00981018     -0.98642658      0.72222141
H      -4.13383394     -1.78842456     -0.67459448
H      -2.38926657     -1.86498945     -0.41043158
H      -3.48031917     -1.61654291      0.96258718
H      -3.05917357      0.34157473     -1.36148885
H      -5.37679710      0.38584635     -0.48010442
H      -4.76790300      0.64072200      1.16506781
H      -4.52057715      1.88014366     -0.07793466
H      -2.13330338      1.85370219      0.49837504
H      -2.14164316      0.42998570      1.56259213
H       1.97984162      2.35988214      0.02754416
H       4.31104616      1.85560630     -0.62650080
H       3.68559416     -2.30350481      0.45785519
H       1.35956762     -1.76877554      1.10352131
