35
CC(C)=CCC1(C(C)C)C(=O)NC(=O)NC1=O
C       3.81100092      1.03497932     -0.60033461
C       2.68701593      0.06472802     -0.33958757
C       3.00695636     -0.97927387      0.69621684
C       1.51936448      0.17510018     -1.00265867
C       0.30299678     -0.71497965     -0.88801202
C      -0.88225775     -0.16502746     -0.03915181
C      -2.03133228     -1.23980728      0.06865554
C      -3.27831663     -0.69285772      0.78392200
C      -2.45544399     -1.89923610     -1.25169613
C      -0.34817480      0.09127065      1.37035307
O      -0.24206466     -0.78733334      2.22587667
N       0.06717092      1.35901180      1.66049913
C      -0.27485951      2.47650578      0.97201964
O      -0.10532299      3.59741036      1.44052064
N      -0.87685298      2.29533674     -0.23123516
C      -1.37772527      1.11503885     -0.70310183
O      -2.14618655      1.13474706     -1.66259540
H       3.54888404      1.78206743     -1.35688513
H       4.69852196      0.50042452     -0.95440038
H       4.06961029      1.57050377      0.31904491
H       2.17868933     -1.66076328      0.89970692
H       3.27032042     -0.49794420      1.64409402
H       3.85846532     -1.58469252      0.36847039
H       1.42260255      0.97420603     -1.73977274
H       0.59158984     -1.70446720     -0.51507544
H      -0.03247885     -0.88228194     -1.92028226
H      -1.65894665     -2.06492275      0.69245114
H      -3.99611829     -1.49964918      0.96988738
H      -3.02628078     -0.25342315      1.75387791
H      -3.78931931      0.06863656      0.18664613
H      -1.62643189     -2.44282481     -1.71399518
H      -3.24828222     -2.63441441     -1.07097589
H      -2.84278997     -1.17798288     -1.97508315
H       0.42231014      1.50800895      2.59450160
H      -1.21631391      3.13390570     -0.68190057
