49
CC(=O)OCC1OC(OC(C)=O)C(OC(C)=O)C(OC(C)=O)C1OC(C)=O
C       5.45181938      0.27035030     -1.28471591
C       4.45946173      0.77395663     -0.28173689
O       4.47531028      0.48501827      0.90606638
O       3.52580260      1.55083797     -0.89673538
C       2.47613501      2.07258629     -0.06610734
C       1.11604094      1.50776827     -0.49990908
O       0.11822654      2.08112974      0.35427265
C      -1.22478554      1.70008031      0.02857314
O      -2.06285369      2.31709928      1.01763710
C      -3.27428508      2.75320709      0.59530773
C      -4.02131024      3.37595603      1.73432902
O      -3.71493058      2.64435770     -0.54057293
C      -1.40736615      0.16294494      0.05481818
O      -2.68721848     -0.21750514     -0.51341680
C      -3.71295969     -0.41338323      0.35518572
C      -4.94714284     -0.82063756     -0.38994564
O      -3.65519432     -0.26313070      1.56667667
C      -0.33458508     -0.49171857     -0.82576106
O      -0.45008190     -1.92885551     -0.70821430
C       0.07362480     -2.63510422     -1.74959624
C      -0.05149046     -4.10513140     -1.49540694
O       0.55607577     -2.13955377     -2.75863902
C       1.07191314     -0.02636222     -0.42401981
O       1.34503397     -0.41739568      0.94322593
C       2.05191319     -1.56473642      1.12856122
C       2.29374580     -1.78644638      2.58945958
O       2.42683722     -2.31764752      0.24147739
H       6.37690631     -0.00597654     -0.77200244
H       5.04081041     -0.60081042     -1.80035862
H       5.69053362      1.05617739     -2.00598457
H       2.64642845      1.90710746      1.00487614
H       2.47030810      3.16156735     -0.19595121
H       0.92334111      1.82386123     -1.53362788
H      -1.45188241      2.10151055     -0.96756731
H      -4.95644134      3.80409745      1.36187752
H      -4.25553789      2.61558842      2.48335693
H      -3.42631707      4.18067991      2.17432503
H      -1.32297642     -0.22436829      1.07833625
H      -4.74160914     -1.71123075     -0.98951907
H      -5.73848283     -1.06259902      0.32549835
H      -5.28492720      0.00246705     -1.02435452
H      -0.54124291     -0.20848723     -1.86789782
H       0.43550879     -4.36412301     -0.55196085
H      -1.10665711     -4.38727279     -1.47330499
H       0.44503348     -4.65496752     -2.30024458
H       1.82438334     -0.45090594     -1.09738782
H       2.86338003     -2.70967970      2.72710143
H       2.87283840     -0.95588871      3.00057445
H       1.33886594     -1.88443141      3.11078333
