63
CCC(C)C(=O)OC1CC(O)C=C2C=CC(C)C(CCC3CC(O)CC(=O)O3)C21
C      -5.46833993      1.30155758     -0.00731139
C      -4.40474625      0.99556443     -1.05493339
C      -3.06973187      1.72767110     -0.84759670
C      -3.21143486      3.24788948     -0.90423490
C      -2.39937061      1.29331717      0.44529049
O      -2.22952757      2.00342559      1.42619488
O      -2.00410462     -0.00636952      0.34472797
C      -1.35008153     -0.57685304      1.49878425
C      -2.39594777     -1.14111618      2.45978868
C      -3.21764119     -2.24749375      1.80489915
O      -3.88544687     -2.96925396      2.83308883
C      -2.38874440     -3.20163836      1.00168597
C      -1.11068262     -2.97048578      0.64820687
C      -0.38769847     -3.94340363     -0.14682692
C       0.83129800     -3.70528577     -0.64756792
C       1.57171715     -2.40276469     -0.47403847
C       2.70662260     -2.62348007      0.53151516
C       0.59410136     -1.24407033     -0.10752326
C       1.31053210      0.09564809      0.19158603
C       2.18871142      0.58998370     -0.96363865
C       2.60214981      2.06748837     -0.83713409
C       3.32565703      2.47986338      0.43861869
C       4.75719235      1.98393087      0.45502543
O       4.78164366      0.57415852      0.64752698
C       5.48685805      2.37052342     -0.81325950
C       4.69248516      2.18893633     -2.07768745
O       5.24764847      1.98899270     -3.15433025
O       3.36269952      2.42061946     -2.01194587
C      -0.36833309     -1.69043426      1.04073748
H      -5.75649707      2.35707519     -0.02367934
H      -5.12360854      1.05019657      1.00012764
H      -6.36848150      0.71111804     -0.20819856
H      -4.23125893     -0.08817187     -1.06114646
H      -4.80355552      1.25085809     -2.04471299
H      -2.39035230      1.44339949     -1.66265224
H      -2.22640725      3.72563367     -0.85660133
H      -3.79886642      3.63821940     -0.06631963
H      -3.69184778      3.56029902     -1.83716338
H      -0.77385153      0.19411956      2.02535868
H      -3.08068183     -0.35230756      2.79539972
H      -1.90273230     -1.51686422      3.36602206
H      -3.98417678     -1.80823464      1.15594412
H      -4.42852808     -3.65114529      2.40429085
H      -2.88300287     -4.11284509      0.67527374
H      -0.85819005     -4.90482955     -0.34158545
H       1.32786439     -4.48326114     -1.22335515
H       2.02458720     -2.16446092     -1.44511194
H       3.35334912     -1.74670260      0.60917396
H       2.32939611     -2.85339339      1.53313645
H       3.34371424     -3.45980311      0.22066697
H      -0.02897394     -1.06756409     -0.99879044
H       1.90155175      0.00508677      1.10925743
H       0.56147292      0.87101710      0.38088199
H       3.07336427     -0.04398667     -1.08087922
H       1.63925829      0.47994551     -1.90881376
H       1.68389983      2.66599154     -0.89433481
H       2.78144989      2.13638414      1.32378413
H       3.34920681      3.57712300      0.47883954
H       5.27439984      2.41987646      1.31761655
H       5.70978628      0.29710424      0.75609413
H       5.76374518      3.43028331     -0.77188254
H       6.40388033      1.77772725     -0.90841828
H       0.24260120     -1.94480911      1.91904835
