20
CC(C)c1nc([N+](=O)[O-])c[nH]1
C      -1.84067769     -0.60302298      1.38086181
C      -1.42385269      0.33780831      0.25122352
C      -2.13399250     -0.03125703     -1.05049917
C       0.06407333      0.30909634      0.06496676
N       0.79954130     -0.73369002     -0.26889540
C       2.09809285     -0.26893139     -0.31631869
N       3.20276866     -1.13917881     -0.65418614
O       4.33086930     -0.62229470     -0.66875653
O       2.95201099     -2.32591699     -0.90294824
C       2.14916770      1.07364767     -0.00688071
N       0.84938495      1.42721928      0.23305964
H      -1.34591595     -0.33047405      2.31989041
H      -1.57741418     -1.64322869      1.15735094
H      -2.92247907     -0.55671639      1.54539582
H      -1.73166920      1.35459930      0.52747072
H      -1.88266666     -1.04823027     -1.37282705
H      -1.84999671      0.65215468     -1.85867188
H      -3.22101113      0.02522772     -0.92922418
H       2.96841642      1.77591714      0.05935065
H       0.51535029      2.34727089      0.48963770
