27
Cc1nnc(N=S(=O)(O)c2ccc(N)cc2)s1
C       4.79137063      0.06857276     -2.71468457
C       3.69357928     -0.05537355     -1.72330947
N       2.85012772      0.90589380     -1.40548053
N       1.93875958      0.49574526     -0.44878594
C       2.12883433     -0.75464800     -0.10092714
N       1.27013556     -1.42496851      0.86649609
S      -0.09920764     -1.83905118      0.33504033
O      -0.42762370     -2.45941249     -0.92514673
O      -0.26830800     -2.94597653      1.49250597
C      -1.28909370     -0.58611866      0.69695443
C      -2.16958308     -0.73081982      1.76979315
C      -3.10841506      0.27233044      2.02898507
C      -3.15057017      1.43343609      1.25064101
N      -4.16794445      2.37404283      1.44494214
C      -2.30729905      1.52972295      0.13953761
C      -1.36459303      0.53430165     -0.13185020
S       3.43001250     -1.53278020     -0.88257379
H       5.76325605     -0.11121744     -2.24437587
H       4.80676680      1.07496077     -3.14517100
H       4.65933407     -0.64576254     -3.53344759
H       0.53970417     -2.85767785      2.04533297
H      -2.15203009     -1.61762511      2.39724932
H      -3.81196990      0.13826763      2.84687214
H      -4.51345967      2.41710430      2.39844028
H      -3.95365155      3.29369107      1.07161967
H      -2.37686194      2.38519369     -0.52779639
H      -0.71126965      0.63816863     -0.99480099
