17
NN=C(N)N.O=C(O)O
N       1.76938486      0.20632630      0.41917496
N       0.73425877     -0.67549560      0.45964625
C      -0.39219795     -0.19334038      0.03910183
N      -1.52066870     -0.93064989     -0.02536542
N      -0.61058471      1.07821674     -0.37443840
O       0.44405837      1.08429180      1.06191341
C      -0.04181915      0.27000822      0.30774476
O       0.65199554     -0.39533114     -0.61846638
O      -1.30884405     -0.12708926      0.23269145
H       2.58584259     -0.22978703      0.85407534
H       2.04163506      0.36200680     -0.55542523
H      -1.30829496     -1.91302574      0.11607635
H      -2.02105230     -0.78730011     -0.89364847
H      -1.46294257      1.44861395      0.02809879
H       0.18461991      1.63443496     -0.06729601
H       1.56069726     -0.04691937     -0.49493193
H      -1.30608798     -0.78496026     -0.48895130
