24
Nc1cccc2cc(S(=O)(=O)O)ccc12
N      -2.89748070      1.81614900      0.57537408
C      -2.30743266      0.60518921      0.15240390
C      -3.14023740     -0.51437657      0.01478228
C      -2.61791532     -1.75892542     -0.32369550
C      -1.24492886     -1.91224676     -0.48770903
C      -0.37471247     -0.83213219     -0.28702592
C       1.01053050     -1.01849466     -0.41564418
C       1.88590903      0.04401257     -0.18868663
S       3.63134854     -0.21283915     -0.31467367
O       4.08331083      0.42965616     -1.52694994
O       3.90700327     -1.60515439     -0.03094514
O       4.25107867      0.59121041      0.94004582
C       1.40530806      1.29637068      0.17965776
C       0.02737552      1.48941544      0.30176603
C      -0.89653594      0.44318806      0.06232728
H      -2.38865163      2.63843637      0.27012183
H      -3.88236204      1.88519465      0.33739746
H      -4.21319101     -0.41930442      0.16127968
H      -3.28064123     -2.61085071     -0.45053039
H      -0.85736805     -2.89439965     -0.75166555
H       1.40799685     -1.99565616     -0.68581939
H       4.72525149     -0.06143155      1.49794293
H       2.08709966      2.12248543      0.36892905
H      -0.32075511      2.47450364      0.60131725
