17
CC(=O)OC(C)C
C       2.77893437      0.01241949     -0.17503364
C       1.46699924      0.00047278      0.54812438
O       1.34415267     -0.17917237      1.75108978
O       0.45173916      0.21619820     -0.33236553
C      -0.87623909      0.22985180      0.22407231
C      -1.40019168     -1.19786841      0.32997616
C      -1.74805361      1.05588285     -0.71391498
H       3.58866237     -0.15792891      0.54028580
H       2.93225488      0.98519637     -0.64893478
H       2.79861206     -0.78677201     -0.92020085
H      -0.87458906      0.71101603      1.20973895
H      -0.77748326     -1.79325844      1.00552882
H      -1.37239466     -1.69830747     -0.64430236
H      -2.42813450     -1.21566245      0.70489420
H      -2.77959565      1.11153760     -0.35308993
H      -1.75095019      0.63225673     -1.72441824
H      -1.35372305      2.07413822     -0.80145009
