21
CCOP(=O)(C#N)N(C)C
C       3.15597325     -1.25974980     -0.36241332
C       2.18445862     -0.44755193      0.46865189
O       0.95809963     -0.34804679     -0.23687926
P      -0.18920551      0.60345945      0.39214065
O      -0.24534874      0.54574694      1.89138423
C       0.39010944      2.30780956      0.00857774
N       0.75692553      3.38285663     -0.24989854
N      -1.58847829      0.28694898     -0.42845614
C      -2.72549843      1.14408746     -0.10086744
C      -2.01947994     -1.10840983     -0.41069356
H       3.32445597     -0.78297641     -1.33370508
H       2.75161276     -2.25736672     -0.56335391
H       4.11597711     -1.36463208      0.15066849
H       2.00817293     -0.94192495      1.42901193
H       2.59151949      0.55146904      0.65208810
H      -2.45721553      2.19876785     -0.21751996
H      -3.56931497      0.95989405     -0.77486045
H      -3.05869041      0.99143553      0.93131351
H      -2.87552345     -1.26971626     -1.07502875
H      -1.21754517     -1.76115765     -0.77039362
H      -2.29100429     -1.43094306      0.60023348
