23
CCCCN(CC)N=O
C      -3.77829977      0.04654703     -0.16659679
C      -2.43850496     -0.56152207     -0.54985923
C      -1.27158931      0.26070168      0.00058612
C       0.07934352     -0.36264112     -0.39185989
N       1.22949339      0.36382443      0.19056796
C       2.44768536     -0.45757438      0.01517286
C       3.63834697      0.05492036      0.82510442
N       1.36052062      1.57055589     -0.32110322
O       1.48570447      2.39998880      0.58588489
H      -4.59759166     -0.55702619     -0.56954320
H      -3.87669908      1.06163294     -0.56439570
H      -3.89209106      0.09093763      0.92124680
H      -2.36934640     -0.62027268     -1.64230412
H      -2.38658290     -1.58676926     -0.16539094
H      -1.34588473      1.28580350     -0.38216981
H      -1.34711083      0.31565279      1.09394228
H       0.16298107     -0.42419600     -1.48623833
H       0.07637949     -1.39447523     -0.01550384
H       2.25134477     -1.47835423      0.36854316
H       2.72785167     -0.53645343     -1.04427394
H       3.38340771      0.14335726      1.88650601
H       3.98440804      1.03018420      0.46832427
H       4.47623363     -0.64482192      0.73879224
