20
COCCOCCO
C      -2.48274347      0.20251170      1.34068244
O      -2.73819676     -0.00638927     -0.04221328
C      -1.70323838     -0.74027931     -0.70615092
C      -0.41858246      0.07253165     -0.89086777
O       0.36613472      0.01625411      0.30766965
C       1.54703358      0.82757985      0.24216320
C       2.67756730      0.07589527     -0.45760367
O       2.93051002     -1.15600671      0.21546119
H      -2.21133374     -0.73344419      1.83816992
H      -3.39867498      0.58498879      1.79987510
H      -1.70039947      0.95298607      1.47921170
H      -1.51612806     -1.67888892     -0.17213851
H      -2.10295024     -0.98878921     -1.69477242
H       0.16259149     -0.36154548     -1.71010352
H      -0.66179451      1.11562675     -1.12106400
H       1.83751635      1.02419233      1.27957337
H       1.33850363      1.78833876     -0.24050571
H       2.42117159     -0.16134482     -1.49356139
H       3.59757383      0.66713460     -0.45282810
H       2.05543955     -1.50135200      0.47900273
