60
CCCC(=O)OC1CCC2C3CCC4=CC(=O)CCC4(C)C3CCC12C
C       5.71685938      1.19258053      3.62421943
C       5.38718948      1.08349569      2.14461633
C       4.22855028      0.12036843      1.90007307
C       3.91579570     -0.02372782      0.42954608
O       4.43426729      0.61781773     -0.47204060
O       2.94989312     -0.97298231      0.26830321
C       2.55622983     -1.26055925     -1.08753185
C       2.21089659     -2.74860645     -1.13320307
C       0.81017347     -2.79330943     -0.54518413
C       0.10092743     -1.58769602     -1.17701105
C      -1.05579359     -1.04578401     -0.30291806
C      -2.20494488     -2.06879039     -0.26006442
C      -3.39414436     -1.56288769      0.54311243
C      -3.88028580     -0.22625202      0.04057204
C      -5.18439835     -0.04727958     -0.23528822
C      -5.72759520      1.28202969     -0.59890027
O      -6.91837312      1.39235282     -0.87833603
C      -4.80271312      2.46958581     -0.52194396
C      -3.39123346      2.06575642     -0.91991621
C      -2.82435227      0.87673143     -0.08872706
C      -2.48576305      1.36457228      1.34025272
C      -1.55901976      0.31613990     -0.84642226
C      -0.41300776      1.34993122     -0.97745437
C       0.98225531      0.77189597     -0.74331537
C       1.22532549     -0.55079470     -1.48744036
C       1.26107997     -0.28806923     -3.01146030
H       6.54477621      1.89136843      3.77771954
H       4.85578817      1.55606796      4.19278086
H       6.01262080      0.22051330      4.03161110
H       6.27652833      0.74474127      1.59978187
H       5.13664367      2.07753002      1.75495523
H       4.48501697     -0.86939976      2.29367023
H       3.32765676      0.48368024      2.40665971
H       3.37952947     -1.05392465     -1.78185047
H       2.19840856     -3.11439125     -2.16580793
H       2.90382385     -3.36289994     -0.54983600
H       0.30630220     -3.73647388     -0.77836906
H       0.85634248     -2.69859195      0.54612239
H      -0.33066343     -1.93206349     -2.12858908
H      -0.68817431     -0.90567607      0.72172389
H      -1.85767741     -3.00825911      0.18472131
H      -2.53281618     -2.30670453     -1.28110668
H      -4.19234928     -2.31421020      0.50374558
H      -3.11247207     -1.46988676      1.59945280
H      -5.91894854     -0.83968804     -0.14999492
H      -4.83811562      2.87870448      0.49316388
H      -5.16504237      3.23839596     -1.21422608
H      -3.40847607      1.79077451     -1.98399576
H      -2.73701500      2.94214310     -0.84111061
H      -3.39317900      1.57172321      1.91922465
H      -1.91040431      0.62251606      1.90341401
H      -1.90351084      2.29040604      1.33210133
H      -1.88770771      0.10839445     -1.87796967
H      -0.46064913      1.79661768     -1.97864497
H      -0.53634590      2.19200566     -0.29145962
H       1.73361187      1.51661405     -1.03236897
H       1.09654815      0.62791758      0.33805604
H       1.49207863     -1.20149167     -3.57096139
H       2.02841704      0.45303060     -3.26085032
H       0.30163539      0.08399766     -3.38505175
