45
CCCCCCCCCCNCC(O)CO
C      -6.43338362     -0.66189524     -0.99094988
C      -5.29622234     -0.68905386      0.01896385
C      -4.64811257      0.68799476      0.16529287
C      -3.56902942      0.74070372      1.25108531
C      -2.37380908     -0.19595439      1.04668662
C      -1.61354301     -0.02079276     -0.27169557
C      -1.04768402      1.37989768     -0.52594723
C      -0.08463803      1.90877060      0.54201091
C       1.14049632      1.03307972      0.82576323
C       2.03759375      0.83203794     -0.39788375
N       3.22715662      0.07408112     -0.00962351
C       4.11411916     -0.15217496     -1.16110334
C       5.27092089     -1.10136256     -0.80616342
O       4.74061266     -2.38133798     -0.41819829
C       6.16030395     -0.57097262      0.32182890
O       7.21754982     -1.51359329      0.53926625
H      -7.21736229      0.03641904     -0.68102517
H      -6.88175166     -1.65605689     -1.08345452
H      -6.07289271     -0.35826059     -1.97899161
H      -5.68413050     -1.02342149      0.98801607
H      -4.55548347     -1.42622370     -0.30860540
H      -4.23167360      1.00728206     -0.79682160
H      -5.42264794      1.42161769      0.42266098
H      -3.21144985      1.77355804      1.33681434
H      -4.02998110      0.50216911      2.21803690
H      -1.68162250     -0.06049915      1.88629777
H      -2.71353599     -1.23640310      1.11471521
H      -0.79744387     -0.75264847     -0.30071735
H      -2.27162136     -0.28545307     -1.10796219
H      -0.54289808      1.37783805     -1.49947584
H      -1.87442523      2.09289342     -0.62873311
H      -0.62996526      2.05904637      1.48120128
H       0.25784873      2.90425110      0.23202056
H       0.82264434      0.06204992      1.22369567
H       1.72088567      1.51621798      1.62295641
H       2.33204694      1.80904618     -0.79839142
H       1.49120779      0.29184235     -1.17862556
H       2.94859128     -0.84822414      0.34047227
H       3.53781356     -0.60684382     -1.97635938
H       4.51826119      0.80346117     -1.51375479
H       5.88043599     -1.27963347     -1.69976153
H       5.50855365     -2.85648967     -0.04205939
H       6.60037471      0.39583461      0.06012750
H       5.60801038     -0.48529651      1.26271714
H       7.74988013     -1.16356330      1.27567381
