34
CC(=O)/C=C/C1C(C)=CCCC1(C)C
C       4.74874429     -0.54993496      0.47557592
C       3.41137919     -0.03735769      0.94014397
O       3.30855594      0.65121582      1.95267937
C       2.22034613     -0.42201255      0.13010424
C       0.98795991     -0.03251848      0.49359677
C      -0.27306701     -0.38130161     -0.27382419
C      -1.18032536     -1.20990966      0.63068596
C      -0.78830423     -2.64759748      0.84026071
C      -2.28369899     -0.69575223      1.20609168
C      -2.75043750      0.71853613      1.02618704
C      -1.76186437      1.61570347      0.27655570
C      -1.01027723      0.87897049     -0.85758839
C      -0.02496444      1.86127417     -1.52748020
C      -2.01218010      0.43611950     -1.95318677
H       5.06632298     -1.36928624      1.12534215
H       5.47804166      0.26397369      0.51629705
H       4.70166228     -0.90788179     -0.55639124
H       2.39015554     -1.02417397     -0.75383747
H       0.86083303      0.56640680      1.39543845
H       0.00419540     -1.01171808     -1.13150903
H       0.18580516     -2.71607624      1.33425808
H      -1.51240970     -3.18450256      1.46228239
H      -0.72949118     -3.16801275     -0.12118115
H      -2.90930632     -1.32364705      1.83714502
H      -3.70501251      0.69635339      0.48665134
H      -2.95753210      1.15904455      2.00837571
H      -2.30008216      2.48639945     -0.11967648
H      -1.03768527      2.01660857      0.99808114
H       0.57543940      1.35677748     -2.29283677
H      -0.56152149      2.68361446     -2.01511157
H       0.65974372      2.31441307     -0.80271204
H      -1.48632254     -0.02366240     -2.79805637
H      -2.74174193     -0.29432804     -1.59111435
H      -2.57296021      1.29426274     -2.34124667
