37
CCCSP(=S)(OCC)Oc1ccc(SC)cc1
C      -3.56027642     -3.26651181      0.82760158
C      -4.02410379     -2.09087117     -0.02197028
C      -3.33752786     -0.77113677      0.32453380
S      -1.57647118     -0.76721339     -0.11179585
P      -0.93818460      1.17104331      0.44570471
S      -0.99931823      1.66081565      2.33954890
O      -1.87251068      2.15894497     -0.45725169
C      -1.61546343      3.55465373     -0.45532564
C      -2.24836013      4.15963421     -1.69197219
O       0.49105094      1.44428679     -0.27117870
C       1.66323285      0.78086119     -0.04973560
C       2.73229486      1.17222308     -0.85704159
C       3.98174577      0.56112363     -0.72365290
C       4.17187682     -0.45512330      0.21467195
S       5.78308790     -1.20260936      0.36647916
C       5.34514085     -2.94910749      0.15559365
C       3.10273405     -0.83152101      1.03241006
C       1.85009402     -0.21944258      0.89896167
H      -3.68122007     -3.05109880      1.89405717
H      -4.15549688     -4.15510773      0.59350747
H      -2.51093513     -3.51326663      0.64176633
H      -3.89023777     -2.32700667     -1.08453570
H      -5.10267721     -1.96491783      0.13388912
H      -3.44164358     -0.55920294      1.39322313
H      -3.82244156      0.04262593     -0.22415351
H      -2.05647234      3.99909220      0.44176896
H      -0.53895742      3.75007408     -0.45595295
H      -2.08361728      5.24017927     -1.72604978
H      -3.32594545      3.96555333     -1.70855675
H      -1.82957102      3.70939582     -2.59808360
H       2.59857134      1.95849633     -1.59599399
H       4.80206107      0.88476968     -1.36025129
H       6.26237865     -3.54199885      0.10421453
H       4.75224410     -3.30834392      1.00056194
H       4.78539339     -3.09569982     -0.77232566
H       3.23259363     -1.59505716      1.79559757
H       1.05693179     -0.54853597      1.56173597
