36
CCCOC(=O)c1ccccc1C(=O)OCCC
C      -3.93094120     -2.70319462      0.83014427
C      -2.70977667     -1.80436489      0.89833273
C      -3.02366902     -0.38515446      0.44160177
O      -1.81897377      0.38456279      0.53956220
C      -1.92635679      1.64339392      0.05091512
O      -2.94106027      2.19515927     -0.33988383
C      -0.62313533      2.32370561      0.18103889
C      -0.62498399      3.60868302      0.74409762
C       0.57716236      4.28992101      0.94274218
C       1.78458291      3.69674950      0.57583483
C       1.79244208      2.42634337     -0.00385880
C       0.58661157      1.73634166     -0.20869796
C       0.61007793      0.43811644     -0.91243193
O      -0.15128187      0.13417670     -1.81395497
O       1.59479938     -0.33030304     -0.38592471
C       1.69254230     -1.63432719     -0.97204586
C       2.83215888     -2.39571750     -0.30303116
C       4.18478666     -1.73951561     -0.54155424
H      -3.67695110     -3.71430192      1.16328446
H      -4.73254369     -2.32512861      1.47261795
H      -4.31289746     -2.76883742     -0.19361811
H      -2.31933107     -1.78306543      1.92287363
H      -1.90603006     -2.22006023      0.27862539
H      -3.37517257     -0.39320218     -0.59702782
H      -3.79073010      0.06002196      1.08575511
H      -1.56419591      4.07608830      1.03574439
H       0.57090167      5.28422639      1.38421289
H       2.72035783      4.23008702      0.72906208
H       2.73890256      1.98597232     -0.31103822
H       0.75235604     -2.17432562     -0.80980669
H       1.87817704     -1.54489254     -2.04894674
H       2.65607424     -2.44438267      0.77786390
H       2.85627566     -3.42240963     -0.68440728
H       4.40303254     -1.67097485     -1.61203922
H       4.21881754     -0.73069119     -0.11831297
H       4.97797165     -2.32869969     -0.07053331
