22
CCCc1cc(F)ccc1O
C       3.37643120     -0.22424775     -0.15302119
C       1.88968640     -0.42583828     -0.39955295
C       1.04593721      0.33269848      0.62610366
C      -0.43210209      0.13176339      0.39406806
C      -1.11301357     -0.88450887      1.08016085
C      -2.47212714     -1.08536277      0.85967191
F      -3.11088723     -2.05788518      1.52332012
C      -3.17782692     -0.29482610     -0.03943669
C      -2.51384224      0.71508231     -0.73469310
C      -1.14962022      0.91975813     -0.51640893
O      -0.48853336      1.90198399     -1.19810781
H       3.64577430      0.83432889     -0.22504945
H       3.66194120     -0.58536878      0.84014733
H       3.96189736     -0.77501155     -0.89585350
H       1.64656763     -0.09053567     -1.41493969
H       1.66060730     -1.49765641     -0.35699787
H       1.28284312      1.40365940      0.60102975
H       1.30307220     -0.00099122      1.63982505
H      -0.59509483     -1.52585397      1.78714002
H      -4.23716002     -0.47277851     -0.19314316
H      -3.06986312      1.32686097     -1.43817034
H      -1.11468717      2.35472950     -1.78609208
