47
CC(=O)OCCN(CCC#N)c1ccc(N=Nc2ccc([N+](=O)[O-])cc2)cc1
C       5.78023676      3.59233597      1.97210476
C       4.68565979      2.79433385      1.33317025
O       3.49549996      2.93128766      1.57605955
O       5.21276656      1.89331882      0.45986836
C       4.25033658      1.09434766     -0.25140242
C       3.73743625     -0.06206401      0.61701515
N       2.85744651     -0.96810010     -0.14279959
C       3.49724619     -2.17455651     -0.69499380
C       3.29922679     -3.37628469      0.22925046
C       3.96565112     -4.55673220     -0.32738374
N       4.49916043     -5.48381547     -0.77680436
C       1.50706586     -0.68881334     -0.32830389
C       0.65882860     -1.53296661     -1.06796409
C      -0.70503013     -1.25559588     -1.25457906
C      -1.28109186     -0.11852343     -0.69726673
N      -2.63898900      0.17160843     -0.90768336
N      -3.31732165     -0.23941139      0.06020757
C      -4.67677436      0.04987731     -0.14439860
C      -5.16384325      1.36116120     -0.04248428
C      -6.52357233      1.63485014     -0.22095792
C      -7.40634779      0.58235853     -0.49588375
N      -8.83591831      0.86100771     -0.68454765
O      -9.58121783     -0.09659834     -0.93620347
O      -9.21255089      2.03700777     -0.58058851
C      -6.93681216     -0.73454212     -0.58863153
C      -5.57419468     -0.99267051     -0.40741000
C      -0.46625047      0.74399005      0.02901631
C       0.89631567      0.45884679      0.21022969
H       6.43422815      2.93081757      2.54542506
H       6.34761023      4.12457137      1.20458473
H       5.34237326      4.32802723      2.65275166
H       3.43823995      1.72518803     -0.63134588
H       4.76581856      0.69407068     -1.13185207
H       3.25529602      0.29536060      1.53373291
H       4.60732763     -0.61822771      0.99265804
H       4.57394226     -1.99013197     -0.81792089
H       3.14565424     -2.38306961     -1.71304932
H       2.23365100     -3.58738880      0.36921424
H       3.70723222     -3.15463867      1.22236754
H       1.02779724     -2.44208471     -1.53141148
H      -1.31804893     -1.93665880     -1.83876972
H      -4.47283006      2.17263886      0.17557097
H      -6.87209144      2.66254180     -0.14150502
H      -7.60990820     -1.56363079     -0.79755354
H      -5.20316988     -2.01311807     -0.47438203
H      -0.88667520      1.64721380      0.46300219
H       1.46059057      1.18286191      0.79220613
