28
COC(=O)c1cc(C(=O)OC)cc(S(=O)(=O)[O-])c1.[Na+]
C      -4.80635375      1.10571747     -0.08022010
O      -3.56135801      0.41014680     -0.06054278
C      -2.47268271      1.21310735     -0.14277824
O      -2.49365114      2.43160001     -0.23256441
C      -1.21889760      0.41210108     -0.11383777
C       0.00517031      1.09364090     -0.21856535
C       1.22284392      0.39324961     -0.19554241
C       2.48409463      1.17483847     -0.30863877
O       2.51780437      2.39290921     -0.40025274
O       3.56331852      0.35514101     -0.29894478
C       4.81479367      1.03143852     -0.40215191
C       1.21470991     -0.99776442     -0.06685097
C      -0.00783733     -1.66939605      0.03020374
S      -0.01514224     -3.46918357      0.22714595
O      -1.22331937     -3.70000676      1.01298452
O       1.23915379     -3.71901560      0.93059414
O      -0.06503631     -3.90743676     -1.16296801
C      -1.22363370     -0.97893925      0.01474054
Na      0.00000000      0.00000000      0.00000000
H      -5.60915412      0.36691405     -0.00645478
H      -4.92519757      1.65323064     -1.02049093
H      -4.88072936      1.78414819      0.77548206
H       0.01022374      2.17866312     -0.31788577
H       5.60923946      0.28030354     -0.38183817
H       4.95665379      1.70819381      0.44631999
H       4.87895128      1.57754889     -1.34854059
H       2.13499447     -1.57711221     -0.04101673
H      -2.14895864     -1.54403806      0.10233199
