54
CCCCCCCCCCCC(=O)N[C@@H](CCC(=O)O)C(=O)[O-].[Na+]
C      -9.09681703     -0.82688415     -0.74117193
C      -7.61256419     -1.10845269     -0.56996109
C      -6.81062713      0.18530258     -0.41833850
C      -5.31778993     -0.10381388     -0.24673381
C      -4.52206042      1.19059522     -0.05493598
C      -3.00571018      0.97553837     -0.01953099
C      -2.53234622      0.17429913      1.19784147
C      -1.01305328     -0.02967810      1.23085470
C      -0.23524960      1.26260393      1.49793877
C       1.26634081      1.03166010      1.69682426
C       1.97063283      0.53906633      0.43324864
C       3.47302645      0.42644306      0.61714492
O       4.04123531      0.62145440      1.68669906
N       4.11128141      0.05609929     -0.54039880
C       5.57857088      0.06637954     -0.69931135
C       6.20860199     -1.18449158     -0.06652489
C       7.71169375     -1.03292788      0.18757507
C       8.53464009     -2.09576759     -0.49904470
O       9.10768561     -2.99474008      0.10773151
O       8.62589652     -1.96689450     -1.83746654
C       5.96632333      0.18437644     -2.21428328
O       7.15337972     -0.14813849     -2.50828335
O       5.02610465      0.57926267     -2.96665939
Na      0.00000000      0.00000000      0.00000000
H      -9.28127810     -0.22628917     -1.63970264
H      -9.49623174     -0.28549164      0.12417471
H      -9.65185191     -1.76640139     -0.84085883
H      -7.25085332     -1.67288244     -1.43880014
H      -7.46714312     -1.74234715      0.31438708
H      -6.96289198      0.81719151     -1.30352819
H      -7.17909723      0.74883691      0.44961029
H      -4.94537914     -0.64094313     -1.12918280
H      -5.17828322     -0.76200097      0.62016397
H      -4.74866257      1.87657377     -0.88173743
H      -4.84415924      1.69081567      0.86805144
H      -2.53193108      1.96413695     -0.01537950
H      -2.68479863      0.47364028     -0.94136675
H      -2.85964999      0.66847103      2.12120521
H      -2.99786577     -0.81853087      1.18559054
H      -0.69176009     -0.48042109      0.28498800
H      -0.78196857     -0.75340308      2.02352866
H      -0.63155227      1.73892470      2.40315642
H      -0.38189889      1.97191149      0.67546167
H       1.72046715      1.97893235      2.01560567
H       1.42847333      0.32081232      2.51678530
H       1.59770522     -0.45097482      0.14870059
H       1.77545443      1.23251733     -0.39302910
H       3.64874574      0.22077637     -1.43514867
H       5.94437530      0.96881317     -0.19333645
H       5.99772609     -2.06262800     -0.69065261
H       5.72596893     -1.38378406      0.89911317
H       8.10683820     -0.04850182     -0.08791633
H       7.90073889     -1.13467045      1.26358058
H       8.09156822     -1.18713645     -2.19667768
