28
O=C(O)CC(CSC(=O)O)c1ccccc1
O       1.23853975      3.72126928     -0.30060030
C       0.89601005      2.74894224     -0.95156403
O       1.56606651      2.38774252     -2.06017684
C      -0.25012602      1.83496328     -0.63255331
C       0.23725824      0.50676132     -0.03022394
C       0.86006172      0.72781768      1.37012807
S       1.59414218     -0.76788529      2.11051409
C       2.95971551     -1.02838981      1.05981719
O       3.50555554     -2.11490194      0.94656339
O       3.44050426      0.01932009      0.35809719
C      -0.91280109     -0.49396689     -0.01815087
C      -2.06824674     -0.28340790      0.75074531
C      -3.10905499     -1.21409968      0.74030063
C      -3.01030248     -2.36472456     -0.03804661
C      -1.87094576     -2.58623276     -0.80745080
C      -0.82904673     -1.65713401     -0.79929313
H       2.27002497      3.06497306     -2.14719635
H      -0.81658602      1.67370399     -1.55880726
H      -0.92663026      2.36411952      0.04982342
H       1.02060193      0.11762873     -0.69373483
H       0.09880605      1.08673612      2.07192091
H       1.63155864      1.50384046      1.34012644
H       4.20266942     -0.37958144     -0.11105855
H      -2.17239045      0.60478603      1.36933516
H      -3.99697414     -1.04213648      1.34322801
H      -3.81944849     -3.09009912     -0.04267452
H      -1.79085288     -3.48556002     -1.41261032
H       0.05189129     -1.85448444     -1.40639043
