20
O=C1OC(=O)C2C1C1(Cl)C(Cl)=C(Cl)C2(Cl)C1(Cl)Cl
O      -2.75022148      0.69866718      1.39353736
C      -1.98070345     -0.07151571      0.84815263
O      -1.74382059     -1.33876192      1.25713896
C      -0.80600283     -1.93875078      0.48914994
O      -0.38192553     -3.06583711      0.66975732
C      -0.35873702     -1.02956099     -0.60379374
C      -1.16663934      0.25463330     -0.35688884
C      -0.06591447      1.32986907     -0.15204978
Cl     -0.63254313      2.97559429     -0.35380090
C       0.69022276      1.01893498      1.12547454
Cl      0.55210127      1.90188958      2.56114313
C       1.39373747     -0.09933048      0.91047182
Cl      2.34973225     -0.95551846      2.01176481
C       1.11270655     -0.54359804     -0.51225091
Cl      2.27032316     -1.63863250     -1.24095281
C       1.00904656      0.86348874     -1.18943064
Cl      2.53465427      1.82372344     -1.19180450
Cl      0.43051149      0.82744736     -2.89500898
H      -0.62020960     -1.47289884     -1.57113362
H      -1.83631834      0.46015691     -1.19947576
