38
CCCN1CCn2c(nc3ccccc3c2=O)C1C
C      -4.39731850      1.59895183     -0.90707828
C      -3.81005248      0.65503980      0.13290886
C      -2.46593749      0.08127094     -0.33335588
N      -1.93201304     -0.95726774      0.56798643
C      -1.61139873     -0.47607786      1.91826563
C      -0.44835358      0.51110704      1.95024328
N       0.66984029      0.16877589      1.07843528
C       0.53030860     -0.73387292      0.04083371
N       1.44822040     -0.93910278     -0.85312713
C       2.64108147     -0.21342467     -0.77454612
C       3.63784722     -0.44837238     -1.72451373
C       4.84634839      0.25285765     -1.67793766
C       5.06767208      1.19858824     -0.67708146
C       4.08025326      1.44219069      0.27651481
C       2.87552128      0.73122710      0.22011146
C       1.80309437      0.96773360      1.19890196
O       1.93254048      1.84995585      2.04470163
C      -0.73847627     -1.60613004     -0.03340992
C      -0.44992840     -2.96215226      0.62137151
H      -3.72238570      2.43920336     -1.09893201
H      -5.35194062      2.00287421     -0.55562078
H      -4.57714244      1.07859922     -1.85322492
H      -4.52111997     -0.15849356      0.31926344
H      -3.69146276      1.21049733      1.06916359
H      -1.74866820      0.89752853     -0.48226943
H      -2.63287934     -0.37021633     -1.32021919
H      -2.48826781     -0.03485266      2.40418556
H      -1.36418708     -1.33487082      2.55389308
H      -0.79588434      1.50708059      1.64675134
H      -0.07777930      0.60793605      2.97809215
H       3.46869973     -1.18506166     -2.50593564
H       5.61320644      0.05940302     -2.42415915
H       6.00675894      1.74548724     -0.64088707
H       4.24665072      2.18090028      1.05710260
H      -0.94204257     -1.81328208     -1.09271453
H       0.30417503     -3.50799515      0.04247487
H      -1.35135161     -3.58328794      0.65626109
H      -0.05362845     -2.86274760      1.63715765
