62
CC(=O)OCC(=O)[C@@]1(O)[C@H](C)C[C@H]2[C@@H]3CCC4=CC(=O)C=C[C@]4(C)[C@@]3(F)[C@@H](O)C[C@@]21C
C       6.78945481      2.15451897      1.12618755
C       5.57535758      1.27985284      1.07366099
O       4.62481427      1.36196062      1.83900272
O       5.69087754      0.37545865      0.06321499
C       4.53511314     -0.44335688     -0.12916754
C       3.41117093      0.29152105     -0.85368876
O       3.55858739      1.44428766     -1.28386241
C       2.06899165     -0.42887963     -1.09722061
O       1.72860833     -0.11656563     -2.46129515
C       2.04729979     -1.97919119     -0.92636150
C       2.43903322     -2.76042706     -2.17851616
C       0.60936467     -2.33269286     -0.45579672
C      -0.15374203     -1.00906051     -0.49692832
C      -1.44010692     -0.86937291      0.33275927
C      -2.43741471     -1.98705114     -0.02505861
C      -3.76709392     -1.83104748      0.70507164
C      -4.34703960     -0.46063628      0.46555650
C      -5.56449516     -0.32572247     -0.09017178
C      -6.14122070      0.99891137     -0.39614108
O      -7.26103809      1.11071779     -0.87897695
C      -5.31455475      2.18201398     -0.09431239
C      -4.10185213      2.05354819      0.46009463
C      -3.44101166      0.72821412      0.83973279
C      -3.30602803      0.74838027      2.38008988
C      -2.06520281      0.54433957      0.07579013
F      -2.36932922      0.57682715     -1.27817795
C      -1.02485151      1.69309486      0.27179565
O      -0.76917401      1.97076109      1.64451674
C       0.31164606      1.43283974     -0.46165405
C       0.91960548      0.04790108     -0.15052156
C       1.38507809     -0.01669474      1.32769700
H       6.89479195      2.69860723      0.18412397
H       6.67799430      2.88060532      1.93659514
H       7.67633241      1.54654692      1.32149655
H       4.84931120     -1.28295968     -0.75601150
H       4.18859695     -0.83932175      0.82977260
H       1.96602030      0.82335337     -2.60187933
H       2.72533873     -2.29445530     -0.12599793
H       1.72537319     -2.60780262     -2.99486847
H       2.46665712     -3.83409024     -1.96336460
H       3.43221192     -2.46320443     -2.52943069
H       0.63868885     -2.73518582      0.56369394
H       0.13438996     -3.08788705     -1.09116361
H      -0.45383221     -0.87286475     -1.54848447
H      -1.19889399     -0.97780353      1.39480190
H      -2.61616470     -1.99539337     -1.10840448
H      -2.01253976     -2.96489022      0.23052885
H      -4.45137866     -2.61839382      0.36590541
H      -3.62684615     -1.99095110      1.78033517
H      -6.18453404     -1.17238778     -0.36163553
H      -5.74690538      3.14539938     -0.33499368
H      -3.55087935      2.96456267      0.68338005
H      -4.28566804      0.63549207      2.86352785
H      -2.89430663      1.69307949      2.75082486
H      -2.66981927     -0.05669897      2.75906588
H      -1.43796836      2.61199211     -0.16018634
H      -0.12884251      2.70450224      1.68578786
H       0.11536916      1.52542142     -1.53666560
H       1.03586780      2.21565868     -0.20513920
H       0.56165006      0.03004920      2.04237564
H       1.92772932     -0.93674844      1.56245449
H       2.05140814      0.82131856      1.55549833
