31
CCCC1(CCC)C(=O)NC(=O)NC1=O
C      -2.38668765     -2.91779009     -0.44857262
C      -2.07060223     -1.44807500     -0.21003400
C      -0.55649406     -1.22289496     -0.06427270
C      -0.14212531      0.25386229      0.15746447
C       1.39515104      0.37596770      0.39991375
C       2.28747008     -0.22288082     -0.69429813
C       3.76015960      0.03098760     -0.40399612
C      -0.79098204      0.81222707      1.41917728
O      -1.11088315      0.12600655      2.38689963
N      -0.94016879      2.17141890      1.46504503
C      -1.04026477      2.97072751      0.36969724
O      -1.57018931      4.07520200      0.42980344
N      -0.60651774      2.45584642     -0.81098314
C      -0.49925262      1.11381991     -1.04800342
O      -0.64299215      0.67617480     -2.18671997
H      -1.91013605     -3.27795714     -1.36589033
H      -3.46713509     -3.06132009     -0.54869041
H      -2.03802559     -3.53435414      0.38603354
H      -2.60073308     -1.12051833      0.68980861
H      -2.46735192     -0.86392880     -1.04689499
H      -0.07641630     -1.61292690     -0.97027005
H      -0.19004442     -1.83425925      0.77110273
H       1.64612900     -0.10882858      1.35393647
H       1.66702834      1.43318268      0.52624567
H       2.13239180     -1.30439641     -0.76408297
H       2.04214570      0.21015455     -1.66955789
H       4.05399608     -0.41417554      0.55194168
H       3.97319148      1.10400896     -0.36432227
H       4.38226454     -0.40947895     -1.18947041
H      -1.38422574      2.53104848      2.29955426
H      -0.84869963      3.01314960     -1.61987405
