20
Cc1ccc([N+](=O)[O-])c(C)c1
C       2.85584307     -0.99351194      0.17193804
C       1.52864193     -0.31181678      0.00160865
C       1.47067672      1.03451850     -0.37633151
C       0.23925762      1.67388395     -0.51110107
C      -0.94131763      0.96226214     -0.25377868
N      -2.20251982      1.67551433     -0.42905680
O      -3.09093943      1.12005525     -1.08934586
O      -2.28963804      2.80197003      0.08002830
C      -0.91558900     -0.38111741      0.16235100
C      -2.15485400     -1.17493623      0.46794371
C       0.33844388     -1.00494085      0.27728442
H       3.60502143     -0.56492210     -0.50204353
H       3.20320236     -0.88242785      1.20367420
H       2.77946518     -2.06004527     -0.06436818
H       2.38542475      1.59087880     -0.57188679
H       0.20793462      2.71795579     -0.81610242
H      -2.84736905     -0.59620695      1.08757011
H      -1.91430055     -2.08340997      1.03108775
H      -2.65140481     -1.47613959     -0.45946588
H       0.39402076     -2.04756382      0.58999455
