32
O=C1c2cccc(S(=O)(=O)O)c2C(=O)c2c1cccc2S(=O)(=O)O
O      -0.32337488     -3.50188290     -0.77531197
C      -0.19660410     -2.31525592     -0.50490684
C      -1.36579410     -1.50978178     -0.08665673
C      -2.56859746     -2.15388539      0.22767326
C      -3.67348595     -1.40766934      0.63622445
C      -3.58150067     -0.01863630      0.73192369
C      -2.38198932      0.62988697      0.40444494
S      -2.29552460      2.40077624      0.58872532
O      -3.57621750      2.85549677      1.08325583
O      -1.06777270      2.70050057      1.30094906
O      -2.12822013      2.94600439     -0.92083430
C      -1.26778787     -0.11824818     -0.00672296
C       0.00004672      0.49693111     -0.43231110
O      -0.00890520      1.62583017     -0.90377820
C       1.24636860     -0.28551936     -0.39354302
C       1.13483630     -1.67075442     -0.54028498
C       2.28011179     -2.46463911     -0.67775916
C       3.54341199     -1.87670287     -0.63963759
C       3.66508880     -0.50286611     -0.43017714
C       2.51763970      0.29473826     -0.29945575
S       2.73532201      1.98481860      0.21795280
O       4.02896106      2.06082287      0.86403373
O       2.39992479      2.84968214     -0.88863744
O       1.63081015      2.18313602      1.37830318
H      -2.64808745     -3.23850917      0.15833525
H      -4.60725458     -1.91002226      0.88434596
H      -4.45303958      0.54738888      1.06090044
H      -1.19062128      2.78350270     -1.20254300
H       2.19244813     -3.54337618     -0.80361230
H       4.43479505     -2.49408633     -0.73790816
H       4.65975337     -0.06520669     -0.34334826
H       0.86525890      2.71752658      1.05036100
