26
CC(C)Oc1ccc([N+](=O)[O-])cc1N
C      -2.92964524     -0.76792424      0.32164876
C      -2.04638637      0.41496918     -0.06195060
C      -2.83907707      1.71611182     -0.00561952
O      -0.98252295      0.50419246      0.90107992
C       0.25363946      0.27678563      0.34665434
C       0.79956172      1.18014153     -0.56910731
C       2.06577034      0.94163592     -1.10258399
C       2.77311360     -0.20271244     -0.70829202
N       4.09467449     -0.47249212     -1.28666321
O       4.73080029     -1.44146170     -0.84830956
O       4.49870724      0.28717462     -2.17879126
C       2.23401366     -1.09559459      0.23000486
C       0.98886349     -0.83132909      0.80443363
N       0.39495200     -1.77833386      1.65683519
H      -3.78907847     -0.85649757     -0.34991624
H      -3.29447248     -0.67020104      1.35012483
H      -2.35876763     -1.70140634      0.27730983
H      -1.67981646      0.26081328     -1.08565862
H      -3.68557828      1.69587046     -0.69877629
H      -3.21736480      1.90291053      1.00560413
H      -2.19952272      2.56679348     -0.26333811
H       0.24521957      2.06609446     -0.86509325
H       2.48101155      1.64565717     -1.82074017
H       2.77444404     -1.99465171      0.51673073
H       1.05212652     -2.28569660      2.24027921
H      -0.36466551     -1.36084925      2.19413472
