11
NC(N)=N[N+](=O)[O-]
N      -0.91135666      0.90568330     -0.01854746
C      -0.29179411     -0.30525519     -0.01810022
N      -1.24502127     -1.27032526     -0.11633327
N       0.95429470     -0.62873348      0.04160662
N       1.85771950      0.36638285      0.11021818
O       1.63340612      1.36942460      0.81057530
O       2.90997754      0.22520091     -0.52676485
H      -1.77974902      0.90068462      0.50735258
H      -0.31684017      1.66814009      0.31237501
H      -0.84425606     -2.18452207     -0.30860128
H      -1.96638055     -1.04668036     -0.79378061
