41
CCCCCCCCOC(=O)C(C)OC(C)=O
C       5.12381545     -2.28254947      0.53467739
C       3.95465034     -1.31834611      0.40349721
C       4.34381140     -0.07672924     -0.39999586
C       3.16921903      0.87267949     -0.65676937
C       2.61905963      1.51312322      0.61997725
C       1.58562602      2.61177866      0.34918377
C       0.34033422      2.17337092     -0.42274778
C      -0.45541294      1.07132102      0.26871766
O      -1.63897664      0.83023526     -0.50585593
C      -2.45737024     -0.13340465      0.00955187
O      -2.22529360     -0.77984825      1.02403573
C      -3.69672323     -0.29927897     -0.87437562
C      -3.30560700     -0.99425564     -2.17171406
O      -4.69485663     -1.11542564     -0.24363966
C      -5.33664902     -0.50994383      0.79318743
C      -6.28226939     -1.47014877      1.44577067
O      -5.18043948      0.65333121      1.13603360
H       5.96812468     -1.80783320      1.04471520
H       4.82664300     -3.16158979      1.11513963
H       5.46342950     -2.62407550     -0.44835545
H       3.62173867     -1.03382877      1.40727869
H       3.11851909     -1.83188829     -0.08493883
H       4.74772862     -0.39038199     -1.37071781
H       5.14753224      0.46250219      0.11602562
H       2.37553886      0.32611929     -1.17871171
H       3.51064384      1.66369387     -1.33577789
H       2.17885169      0.74966056      1.26994718
H       3.44802048      1.95890220      1.18382419
H       1.27449248      3.03846834      1.31092106
H       2.06921365      3.42551238     -0.20551460
H      -0.31169085      3.04530979     -0.56332684
H       0.60705135      1.85270386     -1.43689273
H      -0.73857132      1.38786810      1.27924132
H       0.13068004      0.14743528      0.32014530
H      -4.11880770      0.68784305     -1.10028017
H      -2.56803174     -0.41364532     -2.73450944
H      -4.18585778     -1.14941370     -2.80469577
H      -2.87870643     -1.98369166     -1.97131339
H      -7.05619530     -1.76896761      0.73454871
H      -6.76012122     -0.98334309      2.30073276
H      -5.73314378     -2.34326921      1.80724787
