38
CCCOCC(=Nc1ccc(Cl)cc1C(F)(F)F)n1ccnc1
C       4.03794532      1.60763791      1.06358926
C       3.45560912      1.22092420     -0.28843922
C       1.96610192      0.90410538     -0.20878529
O       1.77421975     -0.23983021      0.62032963
C       0.40751390     -0.57780670      0.80379509
C      -0.27917729     -1.19520233     -0.41347097
N      -1.29302943     -0.71209392     -1.07631426
C      -1.88519052      0.49980519     -0.70692992
C      -1.44406262      1.67578864     -1.32869260
C      -2.01883398      2.90949395     -1.01999277
C      -3.05726554      2.97055184     -0.09788433
Cl     -3.77041068      4.48600352      0.28872698
C      -3.52941832      1.80738815      0.50732298
C      -2.95419141      0.55829937      0.20182123
C      -3.48964912     -0.69532354      0.83904238
F      -4.03442789     -1.56733641     -0.05058775
F      -2.52782965     -1.38685990      1.51712534
F      -4.46758289     -0.45104178      1.75889082
N       0.26621572     -2.42649179     -0.82288338
C       1.32011393     -3.14672086     -0.29639225
C       1.43767689     -4.27746863     -1.06868369
N       0.49438323     -4.29099277     -2.05427355
C      -0.18995629     -3.18169039     -1.88553497
H       5.09955742      1.85359623      0.96048442
H       3.95096083      0.78838721      1.78412913
H       3.52510299      2.48313190      1.47444217
H       3.61510040      2.04041020     -0.99780169
H       3.99780967      0.34456475     -0.66229055
H       1.41844871      1.76008357      0.20154940
H       1.59269087      0.69050957     -1.21572307
H      -0.13244225      0.30146739      1.16711198
H       0.35719530     -1.30733855      1.62096131
H      -0.65169752      1.62725368     -2.07245789
H      -1.66052889      3.81114808     -1.51021957
H      -4.35571221      1.86927120      1.21470206
H       1.89607524     -2.80895347      0.55297726
H       2.15589223     -5.08093748     -0.96429985
H      -1.02720691     -2.86373319     -2.49427883
