24
O=[N+]([O-])O[C@H]1CO[C@H]2[C@@H]1OC[C@H]2O[N+](=O)[O-]
O      -4.35485867      1.27229736     -1.46776902
N      -3.75176103      0.63703190     -0.60661191
O      -4.16175230     -0.21249011      0.18462054
O      -2.37403618      0.95720036     -0.55653090
C      -1.67043433      0.26547988      0.47808731
C      -1.28112865     -1.14016091      0.03351609
O      -0.05639145     -1.02761615     -0.71840447
C       0.51446126      0.27243243     -0.47430675
C      -0.31205143      0.92452680      0.61990218
O       0.30383388      0.58274576      1.87883623
C       1.52266757     -0.12843660      1.60390400
C       1.89133126      0.17086999      0.15925925
O       2.70887067     -0.86768633     -0.35536071
N       3.23253042     -0.58132328     -1.63633618
O       2.97664925      0.52519897     -2.11425893
O       3.91508373     -1.49752142     -2.08853878
H      -2.21956242      0.27640969      1.42695489
H      -2.02433762     -1.62867228     -0.60180516
H      -1.07423278     -1.78297087      0.89560590
H       0.49221168      0.82401935     -1.41823845
H      -0.33318948      2.01578171      0.53508902
H       2.29937101      0.19761353      2.30259169
H       1.35209406     -1.19734774      1.77643615
H       2.40463154      1.14261796      0.14335802
