11
O=[N+]([O-])O.O=[N+]([O-])O.[Cd+2]
O      -0.64401535      1.26473605     -0.01532409
N      -0.42799754      0.03647539      0.05527133
O      -1.44801191     -0.88993061     -0.10801122
O       0.86275090     -0.37378229      0.30190460
O      -1.11378515     -1.05458380     -0.11990351
N      -0.41538357     -0.04990033      0.07291403
O      -1.00749048      1.17776084     -0.03340142
O       0.92060587     -0.15320688      0.38609291
Cd      0.00000000      0.00000000      0.00000000
H       1.65727391     -0.03749854     -0.23384063
H       1.61605333      0.07993017     -0.30570202
