30
O=C(O)c1cc(=O)c2cc3c(cc2o1)CCCC3
O       6.00874954     -0.04963782      0.26390306
C       4.95229596      0.53016655      0.44273905
O       4.92042193      1.79691746      0.89288906
C       3.59374051     -0.01513189      0.21314653
C       3.51105245     -1.27450644     -0.23738548
C       2.18388374     -1.85863183     -0.47955264
O       2.06616713     -3.00487402     -0.89077705
C       1.02458190     -0.99713510     -0.20225135
C      -0.27780637     -1.46315424     -0.39875924
C      -1.37325605     -0.62995252     -0.12391053
C      -1.14743268      0.68595033      0.32560877
C       0.16872149      1.13375868      0.52714393
C       1.24920635      0.29413019      0.26068185
O       2.50544719      0.80139400      0.47532161
C      -2.29344945      1.61208920      0.65662708
C      -3.62286669      1.16762558      0.04988787
C      -3.85369678     -0.31664039      0.30242280
C      -2.76834321     -1.14900156     -0.37734705
H       5.86361316      2.03699464      1.00296432
H       4.37065422     -1.90244502     -0.43855946
H      -0.43772560     -2.47585526     -0.76579865
H       0.35311969      2.14173083      0.89313543
H      -2.06727568      2.62551874      0.30412188
H      -2.38990555      1.65472483      1.74880932
H      -4.43947764      1.75648576      0.48236697
H      -3.62388137      1.36086830     -1.03039927
H      -4.83757822     -0.61627794     -0.07551860
H      -3.85141924     -0.51004221      1.38268077
H      -2.93794114     -1.14962686     -1.46142064
H      -2.84959958     -2.18544197     -0.02857895
