30
CCCc1ccn(CCC(=O)O)c(=O)c1
C      -4.11456159      1.06780529     -0.38600788
C      -3.96685668     -0.44660289     -0.34438046
C      -2.96440221     -0.93035481      0.71070462
C      -1.54406240     -0.48401433      0.46974618
C      -0.81558765     -1.08219119     -0.63052079
C       0.44765731     -0.72041697     -0.88484273
N       1.09380880      0.22520191     -0.10889326
C       2.48285887      0.57548693     -0.40783078
C       3.46448513     -0.22676346      0.43855368
C       4.87491264      0.14121308      0.08970746
O       5.24970971      0.83856620     -0.83712538
O       5.76750995     -0.42495792      0.92543638
C       0.47984152      0.82296538      0.99125698
O       1.02175323      1.63457462      1.73702588
C      -0.92745580      0.41646489      1.25323915
H      -4.89794652      1.34907262     -1.09709539
H      -4.39222231      1.46224465      0.59661225
H      -3.18701768      1.55307782     -0.70449311
H      -4.94595674     -0.88617281     -0.11858344
H      -3.68264314     -0.81031425     -1.33873261
H      -2.99063092     -2.02729954      0.74859944
H      -3.30346885     -0.59279295      1.69905576
H      -1.30775140     -1.82815747     -1.24686835
H       1.00412108     -1.15838676     -1.70818065
H       2.66987362      0.42299387     -1.47846196
H       2.62010172      1.64808472     -0.21941876
H       3.30104217     -0.02308675      1.50240304
H       3.33152527     -1.29979066      0.26291226
H       6.63765283     -0.10911299      0.60294899
H      -1.40628993      0.89266379      2.09932620
