34
O=C(Cc1ccccc1)OCCc1ccccc1
O       0.47631454     -1.27581806     -3.15252972
C       0.09866290     -0.22538533     -2.64861101
C       0.87416820      1.06770266     -2.70045634
C       1.64842554      1.33248037     -1.43537479
C       1.13289586      2.18466712     -0.44948696
C       1.84282267      2.41042486      0.73072522
C       3.06937415      1.78265183      0.93913857
C       3.58700137      0.92701029     -0.03156135
C       2.87965860      0.70021852     -1.21293307
O      -1.06261977     -0.05981758     -1.95656593
C      -1.87099658     -1.23819929     -1.79464253
C      -1.36330920     -2.12361796     -0.65350428
C      -1.54088421     -1.48074820      0.70224833
C      -0.47628016     -0.80431096      1.31197380
C      -0.64410868     -0.19436836      2.55590811
C      -1.87689015     -0.25398919      3.20213124
C      -2.94305503     -0.92397274      2.60494158
C      -2.77736938     -1.53392688      1.36015362
H       1.55890266      1.02573441     -3.55646595
H       0.18424189      1.89039413     -2.92444054
H       0.16915015      2.67106385     -0.58876109
H       1.43434878      3.07219564      1.48988870
H       3.62107036      1.95810373      1.85885773
H       4.54236648      0.43423089      0.13124907
H       3.29371312      0.02328546     -1.95816335
H      -1.90070825     -1.80258998     -2.73476080
H      -2.89476290     -0.89895622     -1.60024374
H      -1.90755050     -3.07604780     -0.66284403
H      -0.30522860     -2.37180057     -0.79762193
H       0.49239335     -0.74369422      0.81958412
H       0.18957785      0.32864192      3.01676162
H      -2.00670942      0.22141426      4.17060259
H      -3.90502494     -0.97106817      3.10879201
H      -3.61959069     -2.05190843      0.90760266
