16
Nc1nc2nc[nH]c2c(=O)[nH]1
N      -2.92238631     -0.07885154     -0.69546639
C      -1.59743933     -0.06134002     -0.38987353
N      -0.72856755      0.12889181     -1.33922941
C       0.59987022      0.13240845     -0.91000923
N       1.70845460      0.32266385     -1.68095275
C       2.72147305      0.23410561     -0.84325012
N       2.30137212     -0.00328555      0.43893638
C       0.94100990     -0.06370474      0.39760614
C      -0.00817485     -0.28320743      1.42187530
O       0.25926640     -0.48566877      2.60006823
N      -1.29322548     -0.24556989      0.93817186
H      -3.53284358      0.39479240     -0.04275481
H      -3.07509488      0.23710894     -1.65049160
H       3.76742280      0.33121829     -1.10303427
H       2.88319046     -0.11328765      1.25909434
H      -2.02432757     -0.44627375      1.59930985
