20
CCC(C)OC(C)=O
C      -1.57105198      1.87625549     -0.04984596
C      -1.65168414      0.48617212      0.56785886
C      -0.63886949     -0.48366665     -0.05380458
C      -0.79847425     -1.87784580      0.54588913
O       0.68424769      0.00499524      0.24063232
C       1.66774737     -0.36799466     -0.62290990
C       2.97560969      0.21885719     -0.18794393
O       1.52318551     -1.07568996     -1.60913856
H      -1.75255961      1.83601118     -1.12857745
H      -0.58988307      2.33133142      0.11759692
H      -2.32575438      2.53127651      0.39689672
H      -1.46719267      0.57932918      1.64510558
H      -2.66841408      0.09772044      0.43758660
H      -0.80363690     -0.52111414     -1.13807052
H      -0.60426017     -1.86439242      1.62409009
H      -1.80576049     -2.26989181      0.37508222
H      -0.07872885     -2.57626176      0.10664337
H       2.90956648      1.30975809     -0.18479998
H       3.23715405     -0.15433927      0.80536626
H       3.75875929     -0.08051041     -0.89036384
