37
C#CCOC(=O)[C@@H](C)Oc1ccc(Oc2ncc(Cl)cc2F)cc1
C      -7.95653464      0.33366449     -1.58458845
C      -7.18339126      0.09473728     -0.69687044
C      -6.23853398     -0.19737805      0.38866534
O      -4.92048356      0.14105467     -0.05046901
C      -3.95790209     -0.08194809      0.89204161
O      -4.18160362     -0.53684705      2.00627811
C      -2.58344708      0.29577623      0.32996842
C      -2.53510895      1.80164203      0.09153338
O      -1.59009777     -0.06344640      1.29211902
C      -0.34614628     -0.42692963      0.86035165
C       0.47340799     -0.96694435      1.85744674
C       1.77556191     -1.37738897      1.56680613
C       2.26894162     -1.22687576      0.27429855
O       3.53150889     -1.68865944      0.00051828
C       4.50081358     -0.73519450     -0.29557844
N       4.23684546      0.58767052     -0.14032463
C       5.24758402      1.44353301     -0.42962826
C       6.50405262      1.03924843     -0.86392756
Cl      7.72689817      2.19206743     -1.21022123
C       6.75308379     -0.31935912     -1.01275921
C       5.73461656     -1.21771095     -0.72089184
F       5.95792259     -2.53256951     -0.85496525
C       1.45742694     -0.70441569     -0.73285335
C       0.15305465     -0.29388832     -0.43656771
H      -8.64117704      0.54613078     -2.37327402
H      -6.49750164      0.39600273      1.27315450
H      -6.28161047     -1.26353094      0.63937284
H      -2.46835699     -0.27949480     -0.59623104
H      -1.54763563      2.12039190     -0.25575593
H      -2.73317264      2.34725819      1.02145206
H      -3.27739794      2.11609449     -0.64881746
H       0.08978203     -1.07362778      2.86962418
H       2.39854760     -1.80493638      2.34643687
H       5.00826336      2.49528143     -0.29618201
H       7.71716632     -0.68688188     -1.34635274
H       1.83927881     -0.60538523     -1.74473725
H      -0.43465532      0.13285924     -1.24131416
