31
Cn1ccc(NS(=O)(=O)c2ccc(N)cc2)nc1=O
C       4.12440812     -0.77042177      1.72216505
N       3.17506616     -0.11945310      0.83290804
C       2.52727679     -0.87508226     -0.11721491
C       1.67399490     -0.31851229     -0.97592908
C       1.50396065      1.12627226     -0.79956454
N       0.60440691      1.80444161     -1.62662952
S      -0.65094327      1.24740145     -2.55761689
O      -1.37676385      2.40810470     -3.02250485
O      -0.13338769      0.25671346     -3.47605511
C      -1.68716706      0.42649621     -1.37288146
C      -2.15858178      1.13789537     -0.26749069
C      -2.95010484      0.48542625      0.68089670
C      -3.31503065     -0.85405230      0.50978316
N      -4.00137508     -1.53025659      1.52365313
C      -2.79615547     -1.56193494     -0.57946183
C      -2.00153533     -0.92360097     -1.53514724
N       2.12046666      1.86360340      0.05036858
C       3.01295964      1.26897412      0.90894069
O       3.64263890      1.94432826      1.71870250
H       5.05505358     -0.94253174      1.17251737
H       4.34140034     -0.15496094      2.59966285
H       3.71670149     -1.72732088      2.06385797
H       2.74611121     -1.93856560     -0.14620676
H       1.17811468     -0.88553372     -1.74626178
H       0.57098295      2.81266225     -1.48828870
H      -1.90962307      2.18725089     -0.12938142
H      -3.28516025      1.03478123      1.55760926
H      -4.49302305     -2.36091631      1.20815619
H      -4.59154905     -0.93146973      2.09361102
H      -3.01202126     -2.62156750     -0.69369090
H      -1.63112128     -1.48817084     -2.38767148
