34
Cc1ccc(C(=O)OOC(=O)c2ccc(C)cc2)cc1
C       6.95798089     -0.41475897      0.55329374
C       5.50873606     -0.36097268      0.16777333
C       4.57272880     -1.17598802      0.81593066
C       3.21666601     -1.10514919      0.48261784
C       2.78045491     -0.20920378     -0.50191201
C       1.35171946     -0.08762277     -0.89504998
O       0.91685510      0.82017870     -1.58915109
O       0.63735256     -1.13400492     -0.39673316
O      -0.76207459     -0.90183894     -0.76023351
C      -1.38297923     -0.42267808      0.35261786
O      -0.88490140     -0.29867853      1.46235919
C      -2.79865166     -0.08786448      0.04537643
C      -3.28453210     -0.00260019     -1.26571227
C      -4.62520099      0.31952679     -1.49779799
C      -5.49697373      0.55298021     -0.42729275
C      -6.92622263      0.93317034     -0.68132569
C      -5.00347963      0.48836643      0.88088525
C      -3.66421311      0.16735923      1.11660137
C       3.71260779      0.62253720     -1.13527943
C       5.06700589      0.54853832     -0.80006340
H       7.23766928     -1.42157362      0.88087613
H       7.59818790     -0.16112033     -0.29818523
H       7.15497562      0.29002239      1.36691879
H       4.89341921     -1.87063053      1.59001703
H       2.51539956     -1.74600984      1.01213536
H      -2.63270748     -0.16877844     -2.12033032
H      -4.98405863      0.39122626     -2.52281551
H      -7.57170701      0.59346406      0.13547214
H      -7.29602212      0.46885638     -1.60157825
H      -7.01346361      2.02012106     -0.77312277
H      -5.65817079      0.68948759      1.72648103
H      -3.29908451      0.12051839      2.14110601
H       3.38827391      1.33527971     -1.89154065
H       5.77441027      1.20784024     -1.29906115
