29
CCOP(=S)(CC)Oc1cc(Cl)c(Cl)cc1Cl
C       3.27841858     -1.71866253      0.10208050
C       2.44046733     -0.94420321     -0.89429237
O       1.30070344     -0.43298038     -0.22102071
P       0.42215796      0.73994534     -0.91694923
S      -0.18712223      0.40083654     -2.73154982
C       1.45016640      2.21112294     -0.68558839
C       1.93522898      2.43465661      0.73454129
O      -0.73214596      0.99016062      0.19741510
C      -1.81895877      0.16684810      0.31888586
C      -1.65841825     -1.17791860      0.65025820
C      -2.78218185     -1.99985623      0.78200068
Cl     -2.51809936     -3.65776726      1.19058352
C      -4.06485431     -1.46941642      0.59125446
Cl     -5.49372729     -2.42904113      0.74176650
C      -4.22234421     -0.11693474      0.27574826
C      -3.09967795      0.70030883      0.14579157
Cl     -3.32580042      2.36744800     -0.23712756
H       4.16621955     -2.13956915     -0.37797460
H       2.69604323     -2.53329124      0.54524552
H       3.59558548     -1.06976261      0.92515434
H       2.11350599     -1.60724247     -1.70066520
H       3.02806806     -0.12645334     -1.32121961
H       0.86782572      3.08347382     -1.00328759
H       2.31590690      2.14591157     -1.35329801
H       2.53931326      3.34490677      0.79411989
H       1.09183383      2.53614477      1.42374246
H       2.54634326      1.59408913      1.07560273
H      -0.66753794     -1.59087672      0.81714386
H      -5.21691945      0.29812302      0.13163835
