41
COC(=O)c1ccc(C)cc1C1=NC(C)(C(C)C)C(=O)N1
C      -3.01788286      3.51349447      0.86227816
O      -2.97059211      2.08788943      0.77987809
C      -2.38558459      1.62208065     -0.34847276
O      -1.92467683      2.28195680     -1.26503407
C      -2.36016871      0.15026263     -0.30983741
C      -3.58731885     -0.50558598     -0.10552023
C      -3.64649885     -1.89817740     -0.04840670
C      -2.48413460     -2.65639231     -0.20011186
C      -2.52999191     -4.15299733     -0.09664915
C      -1.25997582     -1.99785603     -0.38882662
C      -1.18137816     -0.59342989     -0.46314690
C       0.17978386     -0.03195646     -0.64062697
N       1.24951125     -0.64697121     -0.23223673
C       2.39411801      0.24116777     -0.61289151
C       3.23314152     -0.48880166     -1.66383809
C       3.19614809      0.66759203      0.64188925
C       2.33073890      1.37318949      1.69748504
C       3.92911661     -0.50449863      1.30614285
C       1.71166358      1.43069575     -1.27737486
O       2.23400416      2.43466318     -1.72971965
N       0.38621471      1.14498968     -1.26572269
H      -3.61316155      3.92429105      0.04083484
H      -3.49757709      3.78271826      1.80726786
H      -2.00611507      3.93105568      0.85488489
H      -4.50450653      0.06836145      0.01510624
H      -4.60478731     -2.38624841      0.11971085
H      -1.76446967     -4.61111334     -0.73169840
H      -2.36272236     -4.46140517      0.93988130
H      -3.49983807     -4.53849285     -0.42830137
H      -0.34936586     -2.59135643     -0.48004865
H       4.12451114      0.09069742     -1.92779334
H       3.55059721     -1.47679154     -1.31466180
H       2.66290174     -0.64755993     -2.58719490
H       3.95999713      1.39083776      0.32449929
H       1.83838539      2.25980372      1.28627088
H       2.94866201      1.70854404      2.53791523
H       1.55968845      0.70754705      2.09917410
H       3.23298194     -1.29318471      1.60986575
H       4.46539464     -0.16890937      2.20072597
H       4.67334769     -0.94248669      0.63428211
H      -0.31016124      1.78237704     -1.63997806
