18
Cc1nc2ccccc2[nH]1
C      -3.23450990     -0.31422919      0.05817088
C      -1.75418437     -0.27142327      0.05869149
N      -0.93572699     -1.26572301      0.33252655
C       0.33069923     -0.74941613      0.20406945
C       1.57588365     -1.36925335      0.38074435
C       2.73751473     -0.61073185      0.18634768
C       2.66002927      0.73657861     -0.17633149
C       1.42571504      1.37233075     -0.35719445
C       0.28496803      0.59215445     -0.15680884
N      -1.05454287      0.87126752     -0.24268981
H      -3.64073094      0.39672208      0.78418434
H      -3.59114778     -1.31409328      0.32397334
H      -3.62678660     -0.06460435     -0.93246989
H       1.62658153     -2.41486271      0.66213254
H       3.70954232     -1.07935949      0.32017133
H       3.57775627      1.30321456     -0.32114541
H       1.36691836      2.41772519     -0.63859055
H      -1.45797898      1.76370345     -0.48578152
