22
CCNC(=S)OC(C)C
C       3.60619636     -0.41164999      0.44701008
C       2.13718521     -0.50941871      0.08495929
N       1.64581042      0.73150324     -0.47937091
C       0.32760904      1.00698124     -0.70641075
S      -0.12765020      2.37257374     -1.53183354
O      -0.51707018      0.07083791     -0.21189539
C      -1.96455057      0.14413236     -0.27868619
C      -2.48598776      0.88236354      0.94824707
C      -2.47534199     -1.29228311     -0.29726154
H       4.21300491     -0.18172789     -0.43511377
H       3.77532850      0.38063320      1.18377097
H       3.95984994     -1.35671348      0.87009712
H       1.97738403     -1.29869904     -0.65731555
H       1.54507437     -0.75578061      0.97278059
H       2.29690901      1.35208900     -0.94519219
H      -2.29451289      0.63471198     -1.19972749
H      -3.57987167      0.91314891      0.95590572
H      -2.14229032      0.39999758      1.87011450
H      -2.11276663      1.91060989      0.97774331
H      -3.56826003     -1.32562839     -0.33923419
H      -2.07623865     -1.82592849     -1.16672881
H      -2.13981090     -1.84175287      0.58937261
