40
CC1Cc2ccccc2N1NC(=O)c1ccc(Cl)c(S(N)(=O)=O)c1
C      -2.69884873     -2.23832888     -1.71857228
C      -2.57289343     -0.77196351     -1.32970942
C      -3.95749895     -0.10390763     -1.15611090
C      -3.68187220      0.83335756     -0.03061339
C      -4.45925206      1.88201398      0.43273385
C      -4.00721783      2.59491116      1.54415760
C      -2.80634764      2.24147640      2.17827757
C      -2.03843060      1.17399530      1.70319331
C      -2.47921387      0.48038007      0.58572762
N      -1.85166037     -0.63485260     -0.03636714
N      -0.45456283     -0.50803113     -0.13218253
C       0.32181246     -1.59665622      0.23084576
O      -0.09962994     -2.72172349      0.47985218
C       1.78732802     -1.33872840      0.33285299
C       2.54801422     -2.15898755      1.17398399
C       3.92641400     -1.96198538      1.29711516
C       4.56726139     -0.94702735      0.57799683
Cl      6.26966885     -0.78715762      0.81277422
C       3.81239835     -0.13299284     -0.26988815
S       4.55689746      1.15004695     -1.22591736
N       5.20200558      2.17472629     -0.06586240
O       5.65389003      0.60782298     -1.98807932
O       3.50463697      1.92328642     -1.84834667
C       2.42540770     -0.33227953     -0.40098230
H      -1.71309968     -2.68320275     -1.88924508
H      -3.28091879     -2.34675472     -2.63946319
H      -3.19102561     -2.81925382     -0.93083051
H      -2.02124538     -0.23553873     -2.11595494
H      -4.73066112     -0.82204295     -0.86216763
H      -4.26279496      0.41654236     -2.06870974
H      -5.39798839      2.14026368     -0.04629891
H      -4.59767631      3.42141827      1.93269270
H      -2.47877853      2.79320384      3.05601704
H      -1.12934423      0.88218934      2.21735148
H      -0.09928947      0.44151595     -0.12200958
H       2.06744424     -2.95835833      1.73776947
H       4.49544303     -2.61264660      1.95897179
H       6.22214104      2.17051893     -0.12613280
H       4.78976844      3.10459451     -0.14943302
H       1.85971916      0.28015605     -1.09943630
