22
Clc1ccccc1-c1c(Cl)ccc(Cl)c1Cl
Cl      1.20092161      1.12384370     -2.30688644
C       1.68203553      0.39059233     -0.81444903
C       3.05210319      0.27071058     -0.56139413
C       3.49663398     -0.31200440      0.62453875
C       2.57392805     -0.77558590      1.55857667
C       1.20477487     -0.65719654      1.30848139
C       0.73371857     -0.07188585      0.11824505
C      -0.72229386      0.03573520     -0.11141044
C      -1.42858634     -0.99718319     -0.76528325
Cl     -0.63947694     -2.43972285     -1.31188670
C      -2.80349759     -0.90077028     -0.99878607
C      -3.50471612      0.22811930     -0.58423169
C      -2.83493035      1.26492813      0.06718983
Cl     -3.78153943      2.62881918      0.55425007
C      -1.45198562      1.17583573      0.30602607
Cl     -0.63023174      2.47524796      1.12535387
H       3.77803902      0.63070922     -1.28612492
H       4.56236828     -0.40374020      0.81938210
H       2.91905000     -1.23007570      2.48438294
H       0.50130826     -1.02613754      2.05293986
H      -3.33340427     -1.70411433     -1.50655362
H      -4.57421908      0.29387546     -0.77236032
