29
N=C(N)NN=Cc1c(O)ccc2ccccc12
N       5.45648326      1.08086972     -0.28268046
C       4.36997784      0.46657205     -0.59809554
N       4.42395068     -0.58346837     -1.44601779
N       3.12160259      0.77241056     -0.13230205
N       1.98122317      0.10159427     -0.46942618
C       0.89923443      0.50828711      0.12221583
C      -0.41800229     -0.10442475     -0.18207470
C      -0.55865170     -0.87395606     -1.35110318
O       0.46124771     -1.11288365     -2.23455761
C      -1.78255246     -1.43327678     -1.68817406
C      -2.88424249     -1.23098027     -0.86300143
C      -2.77746135     -0.47426270      0.31315684
C      -3.91150357     -0.29819243      1.12273005
C      -3.84606025      0.43528723      2.30439832
C      -2.64139749      0.99957337      2.69523560
C      -1.50310274      0.83554909      1.90049675
C      -1.53366597      0.10430919      0.68335998
H       5.25449891      1.84819108      0.35820407
H       5.36306630     -0.95094364     -1.53148413
H       3.72373981     -1.28276553     -1.23327521
H       3.07022199      1.58015844      0.47971910
H       0.93664156      1.32998520      0.85432474
H       1.27685235     -0.69160559     -1.88381682
H      -1.87943851     -2.02225301     -2.59654188
H      -3.83496399     -1.67718043     -1.14965320
H      -4.86544464     -0.73874180      0.83754997
H      -4.73407259      0.55897901      2.91889189
H      -2.58185427      1.56589125      3.62157901
H      -0.58632627      1.28727742      2.26775105
