16
Cc1[nH]cnc1CO
C      -0.76710404     -1.75636670     -0.75864538
C      -0.61178575     -0.48317098     -0.02221073
N      -1.60286192      0.04002606      0.77130520
C      -1.14145065      1.21092830      1.30032566
N       0.07983984      1.47297258      0.89845165
C       0.42808327      0.42283329      0.06936987
C       1.77635002      0.40260109     -0.57088928
O       2.55001519      1.54564344     -0.20485635
H       0.13459767     -1.99624542     -1.33060634
H      -0.95629808     -2.58141142     -0.06453739
H      -1.60554282     -1.69519346     -1.45975671
H      -2.51418845     -0.36377660      0.93889624
H      -1.73621165      1.82261364      1.96562521
H       1.67832112      0.39663408     -1.66055869
H       2.32835818     -0.49066501     -0.26366422
H       1.95987808      2.05257712      0.39175127
