22
CCCCCOC(N)=O
C      -3.69058015     -0.16223191      0.25648974
C      -2.31592235     -0.63952031     -0.18397913
C      -1.25058344      0.43182199      0.04678812
C       0.12861507     -0.05145049     -0.39688630
C       1.19629190      1.01507839     -0.17111725
O       2.46766331      0.54698988     -0.64679121
C       3.19565423     -0.16542120      0.24080546
N       4.36482375     -0.53952649     -0.32303047
O       2.87866712     -0.45073207      1.38357489
H      -3.69755904      0.08277005      1.32338343
H      -3.99452345      0.72830780     -0.30287843
H      -4.43685053     -0.94372844      0.08254897
H      -2.35148413     -0.90667916     -1.24656085
H      -2.05625716     -1.54868564      0.37074635
H      -1.22161766      0.69813946      1.11040663
H      -1.51735169      1.34040952     -0.50666998
H       0.39830792     -0.96600737      0.14493593
H       0.11165273     -0.32639251     -1.45889335
H       0.95517518      1.91481732     -0.74775126
H       1.25463820      1.31706877      0.88162135
H       4.56659453     -0.28462006     -1.27674179
H       5.01464564     -1.09040755      0.21629551
