16
O=Cc1ccccc1C=O
O       2.84212410      0.04600637     -1.05005054
C       1.86721246     -0.68629531     -1.12083062
C       0.56966445     -0.40882466     -0.46190577
C      -0.43024782     -1.37808610     -0.66568998
C      -1.69521891     -1.22786717     -0.09565676
C      -1.97519071     -0.11055479      0.68251922
C      -0.99013257      0.85599622      0.89031147
C       0.29051962      0.72009097      0.32293309
C       1.26243792      1.80370724      0.60609836
O       0.95087643      2.76664344      1.30342934
H       1.92147313     -1.62179429     -1.70408700
H      -0.23829511     -2.26263566     -1.27049059
H      -2.46201785     -1.98226788     -0.25861737
H      -2.95895808      0.01343188      1.13014080
H      -1.22825552      1.72530841      1.50345580
H       2.27400846      1.74714134      0.18844054
