39
CN(C)CC/C=C1/c2ccccc2Sc2ccc(Cl)cc21
C      -4.54562936      0.08230980     -0.95581034
N      -3.81392448     -0.19293884      0.28200925
C      -4.64966453      0.15047919      1.43600547
C      -2.53787597      0.54474412      0.34854825
C      -1.49092118      0.04894331     -0.66922308
C      -0.17708983      0.77568831     -0.49774698
C       1.06734768      0.27043770     -0.33327554
C       2.15537313      1.22708043      0.01872172
C       2.35011328      2.42781999     -0.68267657
C       3.38080799      3.29936724     -0.32537305
C       4.23233983      2.97800532      0.72889535
C       4.06381395      1.77814110      1.42114941
C       3.03795771      0.89317478      1.06520230
S       2.88995659     -0.64663091      1.97482282
C       2.16565022     -1.70402594      0.72084585
C       2.45176156     -3.07512254      0.76526343
C       1.96318983     -3.92879402     -0.22508390
C       1.20029215     -3.41000932     -1.26774205
Cl      0.62746517     -4.45668735     -2.50773613
C       0.90196383     -2.04903535     -1.31951252
C       1.34920989     -1.18835018     -0.30578868
H      -4.75110107      1.15095980     -1.08578969
H      -5.50224637     -0.45294952     -0.96371458
H      -3.99478539     -0.27574415     -1.83087331
H      -5.58222272     -0.42486015      1.42187801
H      -4.90154832      1.21696489      1.46096823
H      -4.14079419     -0.10698205      2.37168158
H      -2.10638848      0.41237962      1.35036200
H      -2.70948869      1.62215710      0.21990261
H      -1.83569842      0.23126609     -1.69277063
H      -1.38410509     -1.03165031     -0.54427845
H      -0.30600497      1.85774586     -0.45252532
H       1.70717733      2.68932169     -1.51967357
H       3.52070314      4.22796873     -0.87332941
H       5.03423321      3.65707917      1.00776884
H       4.74331459      1.53505128      2.23472904
H       3.06847719     -3.48435795      1.56235745
H       2.19454045     -4.98988415     -0.18498091
H       0.32380030     -1.65906276     -2.15320687
