40
CN(C(=O)NC(C)(C)c1ccccc1)c1ccccc1
C       3.07106467     -2.12587023     -1.38264989
N       2.11200106     -1.17681344     -0.82466917
C       0.91371936     -1.00418791     -1.52986430
O       0.76212081     -1.38688177     -2.68760818
N      -0.11082736     -0.45030502     -0.80295196
C      -1.50040183     -0.29834531     -1.26708118
C      -2.10764671     -1.69335762     -1.53451481
C      -1.57954752      0.51407742     -2.57956544
C      -2.25001452      0.48415112     -0.16263598
C      -3.33946622     -0.04458258      0.55055450
C      -3.97644623      0.69518080      1.55298013
C      -3.53614113      1.97682319      1.86822739
C      -2.45614211      2.52163825      1.18326865
C      -1.82060119      1.78338315      0.18213830
C       2.51349479     -0.44703247      0.34360799
C       3.39458447     -1.01580266      1.27635612
C       3.79920379     -0.30709164      2.41267201
C       3.34194508      0.98930613      2.62740655
C       2.48863715      1.58038915      1.70151268
C       2.08521511      0.86982176      0.56676822
H       4.07878477     -1.69776656     -1.36604114
H       2.83775866     -2.38549306     -2.41913580
H       3.04082221     -3.04782096     -0.79345531
H      -0.01165861     -0.57942856      0.19451761
H      -3.16058577     -1.62434702     -1.83180740
H      -2.04059928     -2.33593213     -0.64846940
H      -1.58648699     -2.21828531     -2.34224712
H      -2.61814411      0.76827665     -2.82357797
H      -1.17753569     -0.04297401     -3.43224027
H      -1.01186059      1.44944916     -2.51971798
H      -3.72159342     -1.04130992      0.34799850
H      -4.81940025      0.26541600      2.08860989
H      -4.03336676      2.54841295      2.64710581
H      -2.10526141      3.52110771      1.42614436
H      -0.97324257      2.23307158     -0.33168798
H       3.76122104     -2.03117241      1.15673278
H       4.47080475     -0.77176532      3.13024291
H       3.65758142      1.54107847      3.50898435
H       2.14428034      2.60041871      1.85180735
H       1.46373080      1.38456370     -0.16118240
