28
O=C(NC(=O)c1ccccc1)c1ccccc1
O      -0.07652715     -1.08747145      0.58663595
C       0.65025267     -0.21040547      0.13598592
N       0.22554582      1.02740360     -0.31763350
C      -0.90861233      1.63369645      0.17794893
O      -0.81880605      2.75046063      0.68515394
C      -2.22744914      0.95183503      0.06904429
C      -2.48847622     -0.01256140     -0.91227200
C      -3.75513388     -0.59513300     -1.00200744
C      -4.76736624     -0.20830306     -0.12395208
C      -4.51865100      0.76366708      0.84410238
C      -3.25357698      1.34677977      0.93788656
C       2.11258377     -0.47489400      0.01149668
C       2.70525156     -1.36459435      0.91665752
C       4.07142727     -1.63908414      0.83861820
C       4.84834012     -1.03407646     -0.14843623
C       4.26123662     -0.16040064     -1.06367253
C       2.89432342      0.11845288     -0.98959517
H       0.97047066      1.71231481     -0.31323414
H      -1.71571559     -0.32494147     -1.60846612
H      -3.95065265     -1.35352731     -1.75590683
H      -5.75138676     -0.66508417     -0.19454317
H      -5.30836876      1.06846584      1.52597123
H      -3.06904471      2.10905354      1.69201057
H       2.10396592     -1.84501515      1.68667579
H       4.52769808     -2.32769432      1.54581132
H       5.91222841     -1.25167558     -0.20995428
H       4.86923297      0.29613186     -1.84147471
H       2.45721018      0.77660048     -1.73549555
