69
CCCCCCCC/C=C/CCCCCCCC(=O)N(CCO)CCO
C       8.52812807     -0.29858590      2.48842033
C       9.09422883      0.32448763      1.22149246
C       8.02558189      0.91185519      0.29720608
C       7.08642353     -0.14289487     -0.29174437
C       6.10093661      0.48357787     -1.28245361
C       5.16112006     -0.57236551     -1.86842404
C       4.20898378     -0.01705000     -2.93421736
C       3.22715813      1.05311691     -2.44496985
C       2.30361652      0.55399684     -1.36852809
C       2.22455018      1.09656706     -0.14285820
C       1.34382830      0.66453155      1.00108168
C       0.27109672     -0.40048428      0.73520137
C      -0.91086004      0.13232267     -0.08291170
C      -1.91935641     -0.95683231     -0.46311665
C      -2.58959148     -1.68345511      0.70771683
C      -3.32657440     -0.79300231      1.71760432
C      -4.44632279      0.07142892      1.13036428
C      -5.67956870     -0.71874450      0.71308554
O      -5.73557803     -1.94380181      0.83762948
N      -6.75184419     -0.01554826      0.17139788
C      -6.79932338      1.44663951      0.00225648
C      -7.67312984      2.12748408      1.06172723
O      -7.17578871      1.87033898      2.37044527
C      -7.93502732     -0.77716089     -0.26801393
C      -7.69269979     -1.54984621     -1.57313935
O      -7.05186187     -2.80227170     -1.35229837
H       7.90096072      0.41537452      3.03165046
H       7.92994949     -1.18721671      2.26622456
H       9.34298391     -0.60648744      3.15204976
H       9.78405428      1.12762309      1.50743699
H       9.68565517     -0.42321074      0.68030528
H       7.44230662      1.66468281      0.84113517
H       8.53301023      1.43663090     -0.52156393
H       6.52341402     -0.63399662      0.50988261
H       7.67499120     -0.91698800     -0.79859369
H       6.65467494      0.97249902     -2.09305853
H       5.52358245      1.25986312     -0.76844073
H       4.58917848     -1.04895777     -1.06361462
H       5.76123759     -1.36584544     -2.33160296
H       3.64214385     -0.85558997     -3.35938249
H       4.80044788      0.40206975     -3.75790108
H       2.61093340      1.37341342     -3.29412299
H       3.77454444      1.94355710     -2.11571319
H       1.68186996     -0.29593944     -1.63817876
H       2.87387472      1.94028530      0.09121316
H       2.00793304      0.28833249      1.79004299
H       0.85749206      1.55901412      1.41090699
H       0.71389693     -1.27596695      0.24567609
H      -0.09971241     -0.74508418      1.70814482
H      -1.41275858      0.93306622      0.47257542
H      -0.54989659      0.58856801     -1.01141575
H      -1.41068851     -1.70601788     -1.08344233
H      -2.68876216     -0.51256697     -1.10580880
H      -1.83408010     -2.26516634      1.24989526
H      -3.28493282     -2.42313818      0.29389517
H      -2.60120464     -0.13498487      2.21017374
H      -3.73726721     -1.43401334      2.50796150
H      -4.75592896      0.78448785      1.90207851
H      -4.06992479      0.63642739      0.27361135
H      -5.79282727      1.86556271      0.05637055
H      -7.18423229      1.65814530     -1.00160131
H      -7.67123366      3.21066424      0.90650526
H      -8.71029908      1.78151038      1.01640244
H      -7.23045672      0.90622150      2.50393221
H      -8.21179431     -1.46937554      0.53581901
H      -8.76323403     -0.07581500     -0.41275331
H      -8.65217088     -1.76939288     -2.05120998
H      -7.08642946     -0.96807985     -2.27489928
H      -6.44942655     -2.69846867     -0.58298009
