10
COC(N)=O
C      -1.55472393      0.25692400      0.34566021
O      -0.14729369      0.40581399      0.53297382
C       0.59593396     -0.27651417     -0.36594647
N       1.90936202     -0.08161885     -0.11777758
O       0.17736093     -0.97251735     -1.27625664
H      -1.84852261     -0.79151665      0.45815647
H      -1.85467583      0.64119065     -0.63442617
H      -2.06294457      0.84270354      1.11665745
H       2.19365484      0.50536165      0.65032068
H       2.59184887     -0.52982681     -0.70936177
