28
O=C(Nc1ccccc1)Nc1ccccc1
O      -0.12379194     -0.91603469      0.95449579
C      -0.01226600     -0.09076787      0.05825226
N       1.19219571      0.39506316     -0.43357709
C       2.48882707      0.13481863      0.05731054
C       3.56837020      0.59349384     -0.70994198
C       4.88421418      0.38508492     -0.28763618
C       5.13341833     -0.28015694      0.90933534
C       4.06726142     -0.73294150      1.68248224
C       2.75025354     -0.52428456      1.25973049
N      -1.07127045      0.49975096     -0.61883916
C      -2.44392168      0.19746914     -0.49881802
C      -3.34663688      1.04727427     -1.15258348
C      -4.72264651      0.81047381     -1.09138816
C      -5.20939335     -0.28203700     -0.37942755
C      -4.31990474     -1.13655084      0.26716091
C      -2.94266048     -0.89947529      0.20584291
H       1.14590603      0.86046752     -1.32617387
H       3.40319307      1.11589725     -1.64817687
H       5.71318195      0.74177474     -0.89322262
H       6.15500847     -0.44493562      1.24138504
H       4.25472836     -1.25022935      2.62014172
H       1.94960053     -0.88443918      1.89840771
H      -0.84929564      1.33437111     -1.13807825
H      -2.99464475      1.90725145     -1.71562377
H      -5.41308601      1.47885666     -1.59903742
H      -6.27861904     -0.46974824     -0.32867015
H      -4.69311039     -1.99367794      0.82212632
H      -2.28491101     -1.59676844      0.71556154
