27
C=C(C)C1CC=C(C)C(O)C1
C      -2.52495464      0.70000648      1.76632899
C      -2.14941748     -0.09686379      0.75064156
C      -3.17792029     -0.94307613      0.04140567
C      -0.71165695     -0.25168516      0.24978203
C      -0.54406843      0.38783439     -1.14697892
C       0.88270829      0.46884330     -1.61432183
C       1.94464354      0.27819441     -0.81096633
C       3.35433627      0.34207828     -1.32658075
C       1.79021457      0.00754486      0.66453363
O       2.12890769     -1.35465959      0.90805932
C       0.37887114      0.28961814      1.19751982
H      -3.56208101      0.75895460      2.08529835
H      -1.82556782      1.32163639      2.31457860
H      -3.27133645     -0.64136555     -1.00613454
H      -2.89171772     -1.99925436      0.07775014
H      -4.16982787     -0.85642905      0.49805873
H      -0.53327224     -1.33276052      0.15275670
H      -1.10812419     -0.19733574     -1.88354663
H      -0.96400087      1.40177445     -1.15725300
H       1.02929507      0.69158985     -2.66919439
H       3.91173421      1.13144933     -0.81205575
H       3.86617176     -0.61118127     -1.16053367
H       3.38978265      0.55554039     -2.40010860
H       2.49710755      0.62234285      1.23326755
H       1.73183569     -1.88166376      0.19414884
H       0.26141151      1.37536118      1.31229453
H       0.26692601     -0.16649395      2.18921675
