58
C[C@@H](NC1=CC(=O)CCC1)c1ccc(Nc2ncc3cc(-c4ccncc4)ccc3n2)cc1
C      -4.66596696      0.79238398      2.37282863
C      -4.47492581     -0.12725991      1.16352126
N      -5.14835339      0.45315278      0.00378090
C      -6.50337850      0.45418978     -0.29605800
C      -7.00716942      1.30732026     -1.20560718
C      -8.45670828      1.36612183     -1.51209286
O      -8.86552272      2.17254989     -2.34467972
C      -9.39325557      0.47972731     -0.72897301
C      -8.70347848     -0.81797237     -0.34872107
C      -7.39790539     -0.55568691      0.39978536
C      -3.02752011     -0.39150567      0.77343310
C      -1.94996259      0.38139611      1.21995415
C      -0.63813537      0.09817994      0.80984046
C      -0.35659174     -0.95285232     -0.06501429
N       0.92867384     -1.28414008     -0.50333036
C       2.20024994     -0.77619558     -0.25388158
N       2.40877330      0.22689839      0.60934598
C       3.67855164      0.63841092      0.77867388
C       4.76155241      0.08759148      0.11894638
C       6.09317383      0.52071244      0.29581827
C       7.14233883     -0.08008389     -0.41261013
C       8.53174358      0.36811383     -0.24088804
C       9.12734569      0.41430328      1.02558497
C      10.43973616      0.84672220      1.13655004
N      11.19234126      1.23601644      0.08723346
C      10.60754846      1.18734469     -1.12729599
C       9.30389065      0.76633301     -1.33882716
C       6.81794656     -1.12011993     -1.29285316
C       5.48977052     -1.54014040     -1.45436508
C       4.44572928     -0.94811606     -0.75754612
N       3.18848013     -1.37593787     -0.94118197
C      -1.43845433     -1.72274726     -0.51411390
C      -2.74934628     -1.44738083     -0.10752996
H      -4.12189370      0.41631143      3.24620089
H      -5.72450490      0.86055175      2.64651142
H      -4.32421974      1.81343044      2.16695325
H      -4.91327471     -1.09959745      1.42009169
H      -4.60529816      1.18830182     -0.44733141
H      -6.39197393      2.02103041     -1.74005336
H      -9.72469802      1.02663246      0.16047604
H     -10.26857018      0.25898996     -1.34907771
H      -9.36970152     -1.43084686      0.26848234
H      -8.48792219     -1.39655361     -1.25683654
H      -6.88117197     -1.51728637      0.49605165
H      -7.61747736     -0.19733684      1.41285841
H      -2.09761550      1.22279385      1.89170768
H       0.15680434      0.73193421      1.19095323
H       1.00393261     -2.02966352     -1.17897183
H       3.79903553      1.45375071      1.48645595
H       6.30376702      1.34117321      0.97988175
H       8.58776756      0.10734114      1.91599784
H      10.93428778      0.89050736      2.10314458
H      11.23243989      1.50821596     -1.95609968
H       8.89821155      0.76382720     -2.34577075
H       7.59859639     -1.62688111     -1.85788295
H       5.26883263     -2.35272593     -2.14320348
H      -1.27364314     -2.55226026     -1.19758218
H      -3.56288138     -2.05896942     -0.49424835
