48
Cc1ccccc1NC(=O)C1=Cc2ccccc2/C(=N\Nc2cc(Cl)c(Cl)cc2Cl)C1=O
C      -3.67869052     -2.61862287     -1.78478782
C      -4.37568239     -2.43174459     -0.46220530
C      -5.47039260     -3.26441304     -0.16591669
C      -6.15564409     -3.14214617      1.04006094
C      -5.75446194     -2.18653273      1.96457642
C      -4.66893778     -1.35146293      1.68534793
C      -3.96833339     -1.45775991      0.47792586
N      -2.86365599     -0.63043732      0.16269292
C      -2.31362085      0.38818282      0.91207147
O      -2.70827194      0.78058518      2.00651249
C      -1.12386776      1.04626050      0.28041927
C      -0.60816986      2.14348615      0.86324198
C       0.49896257      2.90682499      0.27533419
C       0.78699001      4.18800499      0.76330028
C       1.81145961      4.94592732      0.19422813
C       2.55057021      4.43327993     -0.86907547
C       2.27962301      3.15393321     -1.35661214
C       1.27117733      2.37977294     -0.77262402
C       0.94101710      1.00343981     -1.21799473
N       1.71807587      0.08927117     -1.73042551
N       3.03933874      0.37310993     -1.87715574
C       3.95347091     -0.39395248     -1.09107993
C       3.57190172     -0.95402283      0.13796158
C       4.49857770     -1.62844365      0.94109624
Cl      3.93253527     -2.29814625      2.43007563
C       5.83222414     -1.73249749      0.53268488
Cl      7.02893338     -2.54801623      1.47475884
C       6.23808226     -1.15614523     -0.67180249
C       5.30819536     -0.48356809     -1.46747987
Cl      5.86065681      0.22988427     -2.94400519
C      -0.49908652      0.57500844     -0.97407546
O      -1.08375221     -0.14910153     -1.76955069
H      -3.73960798     -1.70153280     -2.37953565
H      -4.13702661     -3.42047351     -2.37362780
H      -2.62959942     -2.88887276     -1.62696469
H      -5.79650278     -4.01869485     -0.87908050
H      -6.99929883     -3.79160212      1.25724679
H      -6.28281611     -2.08517378      2.90903311
H      -4.39613488     -0.62443709      2.44295471
H      -2.43565445     -0.80086000     -0.74647848
H      -1.04189368      2.53432473      1.78238985
H       0.21130933      4.61529765      1.58251651
H       2.02609065      5.94220858      0.57480897
H       3.33952311      5.03062840     -1.32090747
H       2.85729722      2.78645314     -2.19883628
H       3.35745207      0.30966322     -2.85264845
H       2.54150845     -0.87136915      0.47294856
H       7.27612974     -1.22551797     -0.98750864
