24
S=C=Nc1ccc(-c2ccccc2)cc1
S       6.06291216      1.02942619     -1.02674896
C       5.00510741     -0.28690754     -0.40092803
N       4.32851576     -1.15500831      0.01058184
C       2.96563967     -0.81596028     -0.01486136
C       2.17402450     -1.13473800     -1.12293704
C       0.81047679     -0.82082332     -1.13807020
C       0.19985051     -0.19283502     -0.04070213
C      -1.23437518      0.13817131     -0.05683778
C      -2.20108227     -0.84261298     -0.33523658
C      -3.56292083     -0.52883965     -0.35018850
C      -3.98135721      0.77302677     -0.08771264
C      -3.03990213      1.76058314      0.19019917
C      -1.67849341      1.44497378      0.20594765
C       0.99784050      0.10261565      1.07616838
C       2.36114797     -0.21223602      1.09254453
H       2.61736576     -1.63123655     -1.98256879
H       0.22497709     -1.06580070     -2.02243152
H      -1.89747665     -1.86900093     -0.53165360
H      -4.29523153     -1.30295634     -0.56421391
H      -5.04021562      1.01771777     -0.09960665
H      -3.36280082      2.77848434      0.39258380
H      -0.95973938      2.23495651      0.41446962
H       0.55546515      0.56768861      1.95537165
H       2.95027173      0.01131155      1.97854399
