34
CCC(C)(C)OOC(C)(C)CC
C      -3.25693446      0.56285519     -1.67305759
C      -2.70745177     -0.70581070     -1.02879166
C      -1.65374704     -0.46271595      0.07760145
C      -2.24533681      0.36233156      1.22837445
C      -1.16699540     -1.82635022      0.59005966
O      -0.56715222      0.24805811     -0.54206106
O       0.44244563      0.49626528      0.48408442
C       1.72317297      0.55571190     -0.16848076
C       1.74889052      1.74129168     -1.14512369
C       2.02101882     -0.75455356     -0.90928373
C       2.76999742      0.81396068      0.94096038
C       2.82309242     -0.25718147      2.02567372
H      -3.93770822      0.30032503     -2.48956186
H      -3.82174223      1.16466197     -0.95528944
H      -2.45623997      1.18019359     -2.09142204
H      -3.54549565     -1.29004689     -0.62906697
H      -2.25195655     -1.30410511     -1.82891557
H      -1.54899818      0.42272480      2.07256916
H      -3.17719657     -0.07788320      1.59828981
H      -2.43871903      1.39515194      0.91999755
H      -0.41900492     -1.71500982      1.38259950
H      -0.68678864     -2.39537797     -0.21386616
H      -1.99426824     -2.42145398      0.99110897
H       2.74252461      1.87615305     -1.58538763
H       1.46228346      2.66942731     -0.63772104
H       1.03503662      1.60238466     -1.96453266
H       3.05049833     -0.77733189     -1.28173514
H       1.86073341     -1.62409539     -0.26383451
H       1.35382713     -0.88630835     -1.76862284
H       3.76869400      0.91958518      0.49953268
H       2.53632232      1.76529590      1.43689610
H       3.53362872      0.03781351      2.80488051
H       3.15654751     -1.21841642      1.62429763
H       1.84702203     -0.39755042      2.49982832
