39
C=C1C2CCC3C2C(C)(C)CCCC13C
C      -1.67237937      0.17739565      2.26216150
C      -1.24460186      0.24893887      0.99499406
C      -0.66506798      1.48731540      0.34622956
C      -1.69269296      1.97503823     -0.70021216
C      -1.54641230      0.94193020     -1.83682302
C      -0.55519635     -0.09154586     -1.23529762
C       0.42899848      0.90146673     -0.56039391
C       1.76080093      0.40640347      0.06436753
C       2.74433043      0.11590698     -1.09942770
C       2.38333608      1.55747915      0.89206980
C       1.68711557     -0.82810573      0.98851600
C       1.08447942     -2.07355151      0.36071009
C      -0.43591989     -2.12472852      0.38331849
C      -1.22333784     -0.86774546     -0.04874562
C      -2.66431928     -1.33566398     -0.35074029
H      -1.63178310      1.04090935      2.91864397
H      -2.07507163     -0.74258182      2.67321415
H      -0.35399160      2.27072937      1.03931820
H      -1.43568230      2.97507740     -1.06737939
H      -2.71437077      2.00894898     -0.30666866
H      -2.50270679      0.52110041     -2.15527428
H      -1.10344791      1.42152054     -2.71885735
H      -0.11828097     -0.73564199     -2.00229050
H       0.72315546      1.67504141     -1.28911202
H       2.96665765      1.02878432     -1.66487682
H       2.34008931     -0.60951454     -1.81151680
H       3.69817361     -0.27456023     -0.72678600
H       1.79157761      1.77522456      1.78749928
H       3.39570829      1.30177308      1.22629330
H       2.45393197      2.47919605      0.30338320
H       2.71166501     -1.08374694      1.29522189
H       1.16965324     -0.59082082      1.92504946
H       1.44794686     -2.94836370      0.91624335
H       1.44298522     -2.21828242     -0.66286851
H      -0.75289336     -2.42144246      1.39249716
H      -0.72405470     -2.96504069     -0.26420808
H      -2.70052931     -1.90099807     -1.28878387
H      -3.04104120     -1.99060299      0.44469328
H      -3.37682365     -0.50724244     -0.42416168
