27
COP(=O)(CCC(=O)NCO)OC
C      -3.13080511     -1.89933550      1.46468291
O      -3.02921027     -0.92110754      0.44908977
P      -1.82974579      0.14957289      0.57105746
O      -1.66528798      0.74545954      1.93546701
C      -0.39084084     -0.68386676     -0.06930424
C       0.82114678      0.23258022     -0.13463134
C       2.04527059     -0.48732412     -0.65039538
O       2.05493483     -1.67400828     -0.95578283
N       3.14680582      0.33073213     -0.75155041
C       4.42117109     -0.22803017     -1.05361479
O       5.23759979      0.86562906     -1.38879631
O      -2.19561706      1.22407987     -0.57568307
C      -3.29580712      2.07511998     -0.32018991
H      -2.20148411     -2.46932621      1.54073521
H      -3.35459764     -1.42235838      2.42252782
H      -3.94495092     -2.58322945      1.21214676
H      -0.16638940     -1.54555110      0.56927027
H      -0.61713489     -1.08021320     -1.06587569
H       0.60969316      1.08364607     -0.79152243
H       1.04143139      0.62634033      0.86399345
H       3.15961930      1.18876461     -0.21793715
H       4.81686550     -0.72980955     -0.16631129
H       4.36261353     -0.93559074     -1.88619393
H       4.84682969      1.23106739     -2.19987021
H      -4.19747326      1.48596649     -0.13284591
H      -3.08302889      2.71466023      0.54052009
H      -3.46160818      2.70613219     -1.19690335
