27
CCCCC(C)C(C)O
C       3.73768099      0.60090661     -0.41583404
C       2.64583630     -0.43863799     -0.61345161
C       1.30457541      0.04412213     -0.05713180
C       0.21146107     -1.00962692     -0.26342094
C      -1.18147804     -0.62951111      0.29370877
C      -1.15167764     -0.51670152      1.82102979
C      -1.77049164      0.63624756     -0.36977121
C      -3.21262074      0.92116483      0.03873517
O      -1.74112192      0.49476182     -1.79055342
H       3.48731148      1.53514836     -0.92850776
H       4.68673176      0.23531012     -0.82023668
H       3.88305207      0.82000635      0.64679762
H       2.54811933     -0.65822754     -1.68300940
H       2.94208285     -1.36962167     -0.11625230
H       1.02681395      0.97807392     -0.55771194
H       1.41789639      0.26611333      1.00969204
H       0.12265585     -1.22798136     -1.33516709
H       0.52990825     -1.94930106      0.20701367
H      -1.83748360     -1.47475530      0.04138904
H      -0.63949031      0.39367143      2.14827850
H      -2.16522468     -0.49793557      2.23383811
H      -0.63945891     -1.37599015      2.26693459
H      -1.16312352      1.51321174     -0.12210703
H      -3.61386753      1.75894993     -0.54235589
H      -3.85627236      0.05928113     -0.16856540
H      -3.29377071      1.17348843      1.09947298
H      -2.27804412     -0.28216749     -2.02281378
