20
CCOc1ccccc1O
C      -3.38973125     -0.34906610      0.38282013
C      -1.98365259     -0.75554482     -0.02072312
O      -1.10417369      0.31331873      0.31426995
C       0.22674024      0.15339647      0.03212349
C       0.79260563     -0.97903234     -0.56040648
C       2.16904602     -1.03713533     -0.80457168
C       2.99068421      0.03435809     -0.45921908
C       2.44000489      1.16970853      0.13219822
C       1.06624612      1.22366435      0.37409593
O       0.52380355      2.33967163      0.95561851
H      -4.10733249     -1.13951718      0.14574492
H      -3.43706530     -0.13867306      1.45645710
H      -3.68959322      0.56795843     -0.13520569
H      -1.96239579     -0.94251445     -1.10053917
H      -1.70448923     -1.66419346      0.52502234
H       0.19098589     -1.83532198     -0.84512210
H       2.59894220     -1.92289768     -1.26601979
H       4.05935859     -0.01619254     -0.65120409
H       3.08992786      1.99760766      0.39664615
H       1.23008836      2.98040507      1.12801446
