15
O=[N+]([O-])c1ccc(/C=N/O)o1
O       2.87388757      0.36485197     -2.17231211
N       2.94032601      0.41245758     -0.93765032
O       3.96991876      0.58718399     -0.27182755
C       1.72877583      0.25331065     -0.19703645
C       1.47520013      0.25644096      1.15352477
C       0.07699629      0.05031094      1.27127224
C      -0.42498065     -0.06418136     -0.01446135
C      -1.75269495     -0.27859836     -0.51503797
N      -2.75507963     -0.40421173      0.29641044
O      -3.92445981     -0.60237754     -0.44976142
O       0.59370578      0.06096477     -0.92161570
H       2.19932140      0.38921337      1.94602894
H      -0.50867291     -0.00983240      2.17989822
H      -1.88490380     -0.33183344     -1.61045116
H      -4.60734002     -0.68369941      0.24301943
