53
CCN1C=CC(=CC=Cc2cc[n+](CC)c3ccccc23)c2ccccc21.[I-]
C       6.00169674      1.60168438      1.76780068
C       5.96403690      0.05379724      2.00283625
N       4.72635174     -0.40692360      1.37376919
C       3.47883916      0.05719285      1.99316385
C       2.39579516     -0.09536831      1.39085512
C       2.20223496     -0.77195444     -0.06032830
C       1.18339122     -0.52896613     -0.38428524
C      -0.22648077     -0.19566092     -0.83817385
C      -0.85586296      0.59850750      0.05649340
C      -2.22667245      1.02713448     -0.15686207
C      -2.65415653      2.24992724     -0.47135542
C      -4.05519408      2.48052497     -0.58621243
N      -4.88449441      1.45309349     -0.38223152
C      -6.30576267      1.68094575     -0.57589594
C      -7.11799495      2.06842586      0.58834452
C      -4.45955838      0.20512131     -0.07148792
C      -5.36061467     -0.82247970      0.13129560
C      -4.93862117     -2.08232874      0.45374133
C      -3.55666565     -2.35155878      0.56439300
C      -2.67570507     -1.30520434      0.35988582
C      -3.11380958     -0.02147486      0.04456204
C       3.47524768     -1.20637652     -0.56522995
C       3.51657930     -1.84695154     -1.83462571
C       4.70549030     -2.25742833     -2.35721501
C       5.89718429     -2.10201554     -1.71832302
C       5.85043324     -1.49118892     -0.47389330
C       4.70448006     -1.03638913      0.11430697
I       0.00000000      0.00000000      0.00000000
H       4.97549937      1.91291719      1.38974108
H       6.16270196      2.13405733      2.70229758
H       6.75810701      1.86518367      1.02548180
H       6.86194781     -0.41618529      1.62708604
H       5.89678359     -0.06847867      3.08767759
H       3.61858537      0.49681777      2.99928473
H       1.46891488      0.18609148      1.82616917
H       1.34311091     -1.04908369     -1.72251641
H      -0.70569383     -0.58694110     -1.67328301
H      -0.39609825      0.92935938      0.96321433
H      -1.98841424      3.06362884     -0.65153694
H      -4.36070329      3.46966990     -0.85230743
H      -6.36409518      2.54813766     -1.32423246
H      -6.80520546      0.79891746     -1.06944647
H      -6.68929745      1.84988168      1.59566875
H      -8.12646249      1.56921677      0.48304529
H      -7.30912520      3.18382301      0.55796914
H      -6.44108429     -0.65708520     -0.00002932
H      -5.66127985     -2.85165567      0.62330158
H      -3.21301058     -3.33290991      0.80455554
H      -1.61727186     -1.53071981      0.44226014
H       2.58116199     -1.95609736     -2.35190177
H       4.67965200     -2.69611142     -3.32547465
H       6.86483247     -2.41315542     -2.08259763
H       6.79627718     -1.40336383      0.08502216
