13
O=S(=O)([O-])CCO.[Na+]
O       1.14705735     -1.53041176     -0.23998500
S       1.47489707     -0.13835114      0.07460827
O       2.47295692      0.47546385     -0.79690106
O       1.63509103      0.15189306      1.49707364
C      -0.01933581      0.71726686     -0.35347771
C      -1.21477674      0.08060140      0.32848339
O      -1.60108491     -1.13424946     -0.32148163
Na      0.00000000      0.00000000      0.00000000
H      -0.11880097      0.67092348     -1.44271238
H       0.10526560      1.75875592     -0.04205407
H      -2.07435854      0.75491528      0.26451407
H      -1.03594833     -0.13472701      1.38642834
H      -0.77096267     -1.67208048     -0.35449585
