53
CC(O)COc1ccc(C(C)(C)c2ccc(OCC(C)O)cc2)cc1
C       7.50675519      0.02154235      1.33521147
C       6.35099016      0.18354708      2.31633691
O       6.65276674      1.24548530      3.22410822
C       5.01547296      0.46190285      1.61330979
O       4.70099049     -0.62026180      0.73966591
C       3.53493512     -0.53120402      0.03253327
C       3.28177370     -1.60921908     -0.81478914
C       2.12282785     -1.65374761     -1.59854946
C       1.18114651     -0.61528036     -1.55225782
C      -0.11330038     -0.61320053     -2.40110912
C       0.08100093      0.47692287     -3.48766002
C      -0.35813813     -1.94063097     -3.16589984
C      -1.36027825     -0.38806179     -1.51174420
C      -2.31508732      0.60831353     -1.77044910
C      -3.43672720      0.77590498     -0.94485994
C      -3.63016749     -0.05040167      0.15889789
O      -4.67548347      0.00746751      1.03742551
C      -5.61907963      1.07006971      0.85792937
C      -6.67231650      0.98308209      1.97130975
C      -6.06705522      1.08920422      3.36485700
O      -7.37082654     -0.26120952      1.87626715
C      -2.69652443     -1.04914975      0.42617938
C      -1.57873901     -1.21819740     -0.39570032
C       1.45582580      0.46939912     -0.69495948
C       2.61523091      0.51114225      0.08962724
H       7.63288670      0.92367383      0.72671521
H       8.44721095     -0.12678797      1.87678413
H       7.35325819     -0.83120511      0.66744076
H       6.26397346     -0.73770045      2.90327749
H       6.89924730      2.02756997      2.70078251
H       4.23555164      0.57806599      2.37672584
H       5.09209062      1.40175431      1.05122315
H       3.99451053     -2.42893705     -0.86768222
H       1.98440405     -2.51985795     -2.23908774
H       0.16444315      1.48200723     -3.05729096
H       0.99547856      0.29803827     -4.06733982
H      -0.75210431      0.49119734     -4.20059291
H      -0.41314911     -2.80401901     -2.49221843
H       0.43639375     -2.14065537     -3.89474187
H      -1.30285515     -1.90680231     -3.72331919
H      -2.21620342      1.27759671     -2.62061788
H      -4.13995969      1.56113213     -1.20149780
H      -6.11809202      0.94584986     -0.11052994
H      -5.11384686      2.04189715      0.90722869
H      -7.40891067      1.78156825      1.83361877
H      -6.85682431      1.05216491      4.12313012
H      -5.51199280      2.02427833      3.48609028
H      -5.39588945      0.24982480      3.57633144
H      -6.68543789     -0.95379633      1.81349797
H      -2.83377294     -1.70333185      1.28350312
H      -0.86968580     -2.00686346     -0.14917632
H       0.75331672      1.29849857     -0.62172077
H       2.75996601      1.37141984      0.73417848
