33
CCCOC(=O)n1c(-c2cscn2)nc2ccccc21
C       4.76384863      1.56244319     -0.16387405
C       3.28840061      1.42327247     -0.49207757
C       2.62732418      0.32036217      0.32525553
O       1.24733421      0.25546042     -0.05082165
C       0.53145827     -0.67543267      0.62312516
O       0.95612345     -1.49329906      1.42702294
N      -0.79613745     -0.69873816      0.18169742
C      -1.54191354      0.32502878     -0.38481541
C      -1.23940218      1.86807547     -0.32214540
C      -2.04212648      2.78390790     -0.97414239
S      -1.47531946      4.37390033     -0.67920465
C      -0.23723497      3.72151407      0.31120660
N      -0.21775834      2.41236671      0.43304839
N      -2.65382216     -0.12831132     -0.93562585
C      -2.74265890     -1.43438580     -0.54937096
C      -3.76788769     -2.36054760     -0.79475097
C      -3.64954798     -3.65458686     -0.27655909
C      -2.52874103     -4.02164628      0.46688245
C      -1.49245797     -3.11357645      0.71229644
C      -1.63084495     -1.81590118      0.19383372
H       5.30237352      0.63350459     -0.37679450
H       4.90891571      1.80960928      0.89260740
H       5.21242510      2.36024536     -0.76397870
H       3.16233009      1.21437709     -1.56119622
H       2.77600494      2.37510058     -0.30896654
H       3.10814472     -0.64266406      0.11711723
H       2.70511162      0.54515401      1.39552676
H      -2.90664955      2.59193472     -1.59435925
H       0.48228405      4.35925050      0.80807425
H      -4.63839601     -2.06747539     -1.37171678
H      -4.44035853     -4.37901126     -0.45662426
H      -2.45318833     -5.03411171      0.85927705
H      -0.61763357     -3.41581985      1.28122096
