38
COc1ccc(CC2NCC(O)C2OC(C)=O)cc1
C      -6.09903149      0.08329348      1.74776940
O      -5.47698943     -0.40405494      0.56595343
C      -4.15629948     -0.09503218      0.39024879
C      -3.59169357     -0.59227101     -0.78592027
C      -2.25028824     -0.35156994     -1.09077319
C      -1.45061010      0.39533354     -0.21911711
C       0.00797233      0.63986650     -0.53495190
C       0.93898450     -0.40183619      0.10288138
N       0.80936129     -1.74018405     -0.51328910
C       2.03385319     -2.44097765     -0.12505939
C       3.11838474     -1.39874137     -0.35916686
O       4.26435187     -1.64629197      0.44929412
C       2.44652484     -0.06388339      0.01528023
O       2.72360537      0.94965798     -0.97092662
C       4.01647063      1.37079604     -1.02398081
C       4.17267181      2.43180556     -2.06864723
O       4.92705126      0.93449286     -0.33228729
C      -2.01788681      0.89016822      0.96199776
C      -3.36302751      0.64810697      1.26412134
H      -5.62833356     -0.33568155      2.64338008
H      -7.14273664     -0.24532859      1.73617335
H      -6.09496187      1.17798983      1.77370390
H      -4.20220981     -1.17442681     -1.47187116
H      -1.83198745     -0.75618713     -2.01017448
H       0.14539297      0.66929732     -1.62399611
H       0.27263226      1.64261675     -0.17422821
H       0.68800878     -0.51215044      1.16786037
H      -0.01583844     -2.21649926     -0.14668224
H       2.19590474     -3.33458509     -0.73531147
H       1.99803391     -2.75571874      0.92507175
H       3.43212937     -1.40559807     -1.41035052
H       4.85748982     -0.87396751      0.32195888
H       2.78448794      0.30285940      0.99390389
H       3.48215116      3.25523478     -1.86864352
H       5.19361064      2.82293045     -2.03760302
H       3.98729371      2.00613473     -3.05774660
H      -1.41683478      1.47070132      1.65826897
H      -3.75763794      1.05370020      2.18942467
