22
Clc1ccccc1-c1c(Cl)c(Cl)cc(Cl)c1Cl
Cl      0.58305314      1.09497153     -2.54473280
C       1.43978823      0.46744838     -1.17777575
C       2.83639367      0.44694182     -1.23814172
C       3.57567113     -0.04800250     -0.16484015
C       2.92141358     -0.52265311      0.96905804
C       1.52614683     -0.50348541      1.03236363
C       0.76001331     -0.00828100     -0.03945172
C      -0.71623024     -0.00286575      0.06150216
C      -1.47858318     -1.11175243     -0.38301569
Cl     -0.67256363     -2.51182846     -1.03395222
C      -2.88027303     -1.09111560     -0.29956975
Cl     -3.86638118     -2.41289610     -0.82289178
C      -3.53803235      0.02112071      0.22335674
C      -2.80591112      1.12040118      0.66916848
Cl     -3.70271594      2.45438227      1.30918013
C      -1.40365471      1.11662179      0.59310931
Cl     -0.50416777      2.49624909      1.15981012
H       3.35400281      0.81585003     -2.12014276
H       4.66184632     -0.06315254     -0.21359589
H       3.49753928     -0.90895848      1.80684369
H       1.03720953     -0.87988386      1.92925392
H      -4.62456471      0.03088844      0.28446401
