15
O=P([O-])(O)O.O=P([O-])(O)O.[Ca+2]
O      -1.48763763     -1.21020840     -0.20036368
P      -0.32288466     -0.31092516      0.04046819
O       0.48469642     -0.31869354      1.30578546
O      -0.70300888      1.23473226     -0.13686682
O       0.79218907     -0.44352476     -1.10147186
O       0.16601740      0.80647814      1.52793558
P      -0.03424269      0.41925189      0.09798507
O      -0.34302466      1.36072451     -1.02142977
O      -1.11593082     -0.76392105      0.11281190
O       1.21542454     -0.45423617     -0.39751224
Ca      0.00000000      0.00000000      0.00000000
H      -0.37088303      1.63462580      0.68439613
H       1.60752872     -0.58600621     -0.59194742
H      -1.09244085     -1.05831783      1.03977422
H       1.20419708     -0.30997949     -1.35956476
