20
CCCCCOC=O
C       3.17618519      0.02094008      0.72126422
C       1.87615269      0.59739440      0.18356146
C       0.73076941     -0.40892361      0.29038398
C      -0.57317545      0.17385716     -0.25069510
C      -1.72009900     -0.82734367     -0.14885069
O      -2.91547265     -0.26531926     -0.71288246
C      -3.67497761      0.46955837      0.13652514
O      -3.44297983      0.70387485      1.31114078
H       3.98148704      0.75714169      0.63519418
H       3.07723757     -0.25251500      1.77661652
H       3.47087705     -0.87200700      0.16078409
H       2.01841368      0.89009475     -0.86324636
H       1.62704586      1.50619678      0.74369669
H       0.98687607     -1.31763594     -0.26788790
H       0.59505481     -0.70125541      1.33879886
H      -0.83096029      1.08895946      0.29599217
H      -0.44892971      0.47552957     -1.29821286
H      -1.48742729     -1.72524856     -0.73174555
H      -1.88677159     -1.15193779      0.88537396
H      -4.55930594      0.83863913     -0.40579203
