35
CCC(CC)(C(=O)NC(N)=O)C(=O)OCOC
C      -2.45536325      2.07451207     -1.78416505
C      -1.56163405      0.85580109     -2.00278429
C      -0.53106252      0.55831334     -0.86866983
C       0.33028234      1.80947223     -0.53350550
C       1.08553798      2.40935950     -1.71647098
C      -1.28956194      0.07108696      0.39117169
O      -2.50092207     -0.15348146      0.39062431
N      -0.51170804     -0.09243736      1.52876938
C      -0.89869339     -0.68962547      2.69405301
N      -2.21028051     -0.62252087      3.00840967
O      -0.08941904     -1.25913772      3.41715625
C       0.38028917     -0.57830844     -1.35446717
O       0.30728872     -1.13100821     -2.44313606
O       1.30585755     -0.89280012     -0.40416972
C       2.22515571     -1.90672189     -0.81519184
O       3.19821532     -2.12479792      0.20390249
C       2.67133537     -2.85966297      1.30068632
H      -1.88161282      3.00511395     -1.79207956
H      -3.00437598      2.01889878     -0.84052280
H      -3.19150830      2.14073055     -2.59241700
H      -1.04009782      0.99116172     -2.95944748
H      -2.20848925     -0.02037846     -2.14798770
H      -0.30115832      2.58525261     -0.08236444
H       1.07859376      1.56930007      0.23200975
H       1.69621600      3.25236360     -1.37676050
H       1.75746982      1.67766809     -2.17481838
H       0.40859760      2.78787852     -2.48684419
H       0.48872249     -0.18106423      1.39363939
H      -2.86461910     -0.52917538      2.23409517
H      -2.50980269     -1.20279818      3.77979266
H       2.76772661     -1.56407746     -1.70313516
H       1.70136830     -2.84268412     -1.04605274
H       2.34915208     -3.85372271      0.97599758
H       1.83636397     -2.32545540      1.76007924
H       3.46213630     -2.97705474      2.04662221
