17
CC1=C(O)C(=O)C(C)O1
C       2.47847456     -0.47734695     -0.06779736
C       1.04980917     -0.07320916     -0.16768587
C       0.55592108      1.15168660     -0.00040011
O       1.17541762      2.32264834      0.29620917
C      -0.87913320      0.97927382     -0.19627558
O      -1.67681255      1.89865392     -0.08773631
C      -1.16403881     -0.45721712     -0.53782019
C      -2.11260502     -1.10609443      0.44807995
O       0.13608871     -1.09113668     -0.45549693
H       3.12860780      0.37116992      0.16766403
H       2.60532499     -1.22818989      0.71839628
H       2.81653992     -0.90897513     -1.01507613
H       0.46065834      2.98911457      0.34976900
H      -1.52070072     -0.53285343     -1.56991541
H      -1.73173876     -1.02886015      1.47278403
H      -2.22181045     -2.17329316      0.22917678
H      -3.10000268     -0.63537107      0.41612466
