32
CCN[C@@H](C)Cc1cccc(C(F)(F)F)c1
C      -4.84352220      0.72920202      0.11560659
C      -3.50869657      0.27477336      0.68962857
N      -2.56206178      0.02962524     -0.39978708
C      -1.19683842     -0.27672790      0.07508542
C      -1.14296817     -1.65779624      0.74006696
C      -0.23272217     -0.21223704     -1.13744786
C       1.23257239     -0.28745015     -0.76859957
C       1.97852457     -1.43788738     -1.05324344
C       3.32741549     -1.51147408     -0.70642579
C       3.94736897     -0.43366901     -0.07511672
C       3.22532744      0.73432529      0.20928668
C       3.88691233      1.89465527      0.91022491
F       5.22566957      1.97643890      0.66968353
F       3.37147533      3.10281706      0.54640928
F       3.75405542      1.82568533      2.26375882
C       1.86480640      0.79344590     -0.13623255
H      -4.73727615      1.66242405     -0.44786226
H      -5.26629258     -0.02933723     -0.55190105
H      -5.56084147      0.90450396      0.92388773
H      -3.13007337      1.05159046      1.36353666
H      -3.67824893     -0.63542291      1.27281466
H      -2.53245851      0.85747165     -0.99584126
H      -0.89239857      0.48332622      0.80586010
H      -1.46707213     -2.44486029      0.05007149
H      -0.12804037     -1.89887190      1.07188285
H      -1.77782806     -1.70462677      1.63019277
H      -0.37964120      0.73055020     -1.68291958
H      -0.47855842     -1.00778709     -1.85390200
H       1.51043819     -2.28936476     -1.54351861
H       3.89522466     -2.41208077     -0.92794941
H       5.00049293     -0.50682223      0.19256284
H       1.29525539      1.69558086      0.08703108
