61
CC(=O)S[C@@H]1CC2=CC(=O)CC[C@]2(C)[C@H]2CC[C@@]3(C)[C@@H](CC[C@@]34CCC(=O)O4)[C@@H]21
C      -0.06881212      5.24993634     -0.60041285
C      -1.04170775      4.10223481     -0.66081491
O      -2.03809527      4.09596714     -1.37301165
S      -0.58240824      2.71633063      0.32532178
C      -1.37860645      1.35816557     -0.63304880
C      -2.84272756      1.18516908     -0.20759044
C      -3.00455087      0.57813843      1.17011512
C      -3.83983814      1.15799718      2.05186272
C      -4.15908398      0.53740230      3.35901581
O      -4.98958438      1.07417899      4.09280033
C      -3.53514583     -0.79117499      3.69209973
C      -2.19010095     -0.96005433      2.99515102
C      -2.23205269     -0.71353172      1.45667081
C      -2.99221515     -1.87696301      0.77963927
C      -0.74487801     -0.59421878      0.94048050
C       0.06045691     -1.91563921      1.08046161
C       1.51333827     -1.79301006      0.58614734
C       1.57786151     -1.28919681     -0.86509908
C       0.95464837     -2.36680970     -1.79943455
C       0.85018664      0.07188662     -0.91497156
C       1.18207097      0.59873192     -2.30704676
C       2.62167451      0.11488653     -2.56536321
C       2.97517245     -0.88075949     -1.41862858
C       3.96526303     -0.27265190     -0.42820421
C       5.29218430     -0.48191743     -1.12442153
C       5.04354238     -1.75615572     -1.87296016
O       5.90308834     -2.46910272     -2.36615324
O       3.69981754     -1.99774165     -1.95029787
C      -0.63398730      0.00024789     -0.50250072
H       0.45327872      5.29752097      0.36157630
H       0.66255649      5.13134730     -1.40854943
H      -0.60386826      6.19440598     -0.73799307
H      -1.35673400      1.64410514     -1.69062132
H      -3.37949885      2.13915804     -0.28533475
H      -3.33931537      0.51570948     -0.92569590
H      -4.38084757      2.07161893      1.83230838
H      -4.23196148     -1.58834182      3.40904896
H      -3.38012224     -0.84009687      4.77746470
H      -1.47951348     -0.25687715      3.45913561
H      -1.82057148     -1.96850295      3.21544832
H      -4.05015668     -1.87395237      1.06423776
H      -2.95248634     -1.82016347     -0.31134910
H      -2.59331921     -2.85415577      1.07593606
H      -0.23993364      0.12106337      1.60740098
H       0.09190593     -2.22463427      2.13063696
H      -0.43713374     -2.72827691      0.54019961
H       2.02442996     -1.09786449      1.26546714
H       2.02399242     -2.75859923      0.68233398
H      -0.11351923     -2.51624483     -1.62734336
H       1.07571885     -2.12533052     -2.86153900
H       1.44080151     -3.33533887     -1.63790309
H       1.35389081      0.73787690     -0.20032594
H       1.11523946      1.68977089     -2.36350312
H       0.50174717      0.18808898     -3.06173113
H       2.69148243     -0.36370522     -3.54997967
H       3.30289889      0.97441977     -2.58381156
H       3.77749689      0.77653443     -0.18294997
H       3.99698249     -0.84202988      0.50566774
H       5.51429371      0.31457006     -1.83793696
H       6.10937528     -0.59999689     -0.40866797
H      -1.14261995     -0.68442466     -1.19143308
