26
FC(F)(F)C(F)(F)C(F)(F)C(F)(F)C(F)(F)C(F)(F)C(F)(F)C(F)(F)F
F      -4.09514226     -0.37749030     -1.36463251
C      -3.62407446     -0.63177604     -0.12272291
F      -3.30304068     -1.94537578     -0.07561487
F      -4.66138646     -0.45070112      0.73228571
C      -2.44995283      0.25591601      0.24613326
F      -2.81449489      1.56645898      0.21528205
F      -2.06383178      0.00406222      1.52692664
C      -1.29631460      0.00663159     -0.69696112
F      -1.73362751      0.11680978     -1.98825098
F      -0.85571622     -1.27425447     -0.58210395
C      -0.12452950      0.96517674     -0.52464005
F      -0.55395622      2.23151772     -0.81933748
F       0.80853708      0.68796615     -1.48676473
C       0.58921797      1.00276954      0.81968242
F       1.56864608      1.95455420      0.77780594
F      -0.28242609      1.46830961      1.76316849
C       1.20494141     -0.29787717      1.31388457
F       1.73853700     -0.07433953      2.55519956
F       0.18873384     -1.18855919      1.53357241
C       2.25743250     -0.96592628      0.44964406
F       2.63915494     -2.13109412      1.06358446
F       1.70784739     -1.35608582     -0.73379271
C       3.48290981     -0.10219768      0.21443733
F       4.02863509      0.33894769      1.36822279
F       3.19703938      0.98228353     -0.53878531
F       4.44686100     -0.78572624     -0.44907575
