17
CC1(C)C(=O)N(Cl)C(=O)N1Cl
C      -1.36128434      0.21453503      1.09812288
C      -0.37210803     -0.01595415     -0.04132195
C      -1.06287903     -0.47594181     -1.32240620
C       0.67293763     -1.05748782      0.38461818
O       0.40701264     -2.21601734      0.68231494
N       1.90614121     -0.46822610      0.36855580
Cl      3.35895968     -1.27252959      0.77709243
C       1.83504740      0.84575542     -0.01503314
O       2.76438316      1.63282671     -0.12498377
N       0.49049546      1.12203958     -0.25960166
Cl     -0.06429150      2.66450247     -0.76799878
H      -1.92951995     -0.69599336      1.31895126
H      -2.07665375      1.00657887      0.85189674
H      -0.84569627      0.50922936      2.01975722
H      -0.33545260     -0.67141639     -2.11910353
H      -1.62411119     -1.40267460     -1.15838232
H      -1.76298051      0.28077372     -1.69247809
