32
O=C1OC(=O)c2ccccc21.OCCOCCO
O       2.82962510      1.42537749      0.56475202
C       2.11970128      0.46558366      0.34616740
O       2.49692342     -0.83668988      0.23089925
C       1.44139431     -1.65886576     -0.01685988
O       1.46043013     -2.86292495     -0.16803648
C       0.27675334     -0.80413100     -0.06524688
C      -1.05118255     -1.12231865     -0.28549756
C      -1.97357826     -0.07171492     -0.27610744
C      -1.55072192      1.25266676     -0.04979584
C      -0.20057653      1.54176872      0.16974293
C       0.68712444      0.48114673      0.15438198
O       2.09047791      1.79662289     -0.55802332
C       2.27220235      0.39205691     -0.72524733
C       0.92659510     -0.27817048     -0.98225159
O       0.09239856     -0.07170050      0.16738810
C      -1.18368422     -0.70687735     -0.00098555
C      -2.00470795     -0.47681069      1.26349270
O      -2.22753492      0.91940301      1.44986081
H      -1.36247122     -2.14813813     -0.45859528
H      -3.02947234     -0.27715617     -0.44516400
H      -2.28400504      2.05763979     -0.04619116
H       0.14005585      2.55775631      0.34555091
H       1.37121527      1.88921678      0.09476503
H       2.95438735      0.23122543     -1.56448383
H       2.73291700      0.00632291      0.18952973
H       0.44155033      0.17435661     -1.85422603
H       1.06831961     -1.35116022     -1.14899663
H      -1.68836517     -0.25833866     -0.86382670
H      -1.04399546     -1.78028186     -0.16678473
H      -1.47558317     -0.84866961      2.14645087
H      -2.97622351     -0.97357731      1.19320947
H      -1.34996907      1.33638215      1.36012898
