16
CCC(C)C=O
C       2.03336968     -0.12219760     -0.16291569
C       0.65363243     -0.73209462      0.05197339
C      -0.43026008      0.32768881      0.28812355
C      -1.70993122     -0.31658497      0.81622109
C      -0.78634456      1.10207685     -0.96902265
O      -0.36489004      0.84993446     -2.09280014
H       2.33240427      0.48117017      0.70020967
H       2.77748172     -0.91434227     -0.29427243
H       2.06141374      0.51392678     -1.05215461
H       0.39882252     -1.35869470     -0.81133770
H       0.71113012     -1.39758044      0.92212899
H      -0.07383287      1.05847527      1.02403677
H      -2.48568486      0.43721643      0.99070807
H      -1.52557744     -0.83415093      1.76333018
H      -2.11243522     -1.04296863      0.10123583
H      -1.47929819      1.94812538     -0.81480229
