27
Nc1nc(N)nc(N)n1.O=c1[nH]c(=O)[nH]c(=O)[nH]1
N      -1.23552674     -2.28226840      0.62360022
C      -0.60352458     -1.10054999      0.28420546
N      -1.24045059      0.02728677      0.54865820
C      -0.59725031      1.12466954      0.18813980
N      -1.20554571      2.33492812      0.46010271
N       0.59764457      1.15679781     -0.37713121
C       1.12774287     -0.02995962     -0.61990701
N       2.37349869     -0.06071583     -1.21644659
N       0.57755025     -1.18959713     -0.30295613
O      -0.10612181      2.60021935     -0.06322064
C      -0.05200087      1.38115330      0.05994102
N       1.12978393      0.70888120      0.05757680
C       1.22375154     -0.64402931     -0.03924216
O       2.29256498     -1.20755626     -0.24970622
N       0.05610065     -1.33200916      0.06959615
C      -1.16733099     -0.73890066      0.07242681
O      -2.20318064     -1.38593474     -0.03974432
N      -1.17201470      0.61755237      0.16507578
H      -2.23559532     -2.13985884      0.66115455
H      -0.90065645     -3.03340445      0.03582105
H      -0.51558053      3.06943968      0.53029479
H      -1.86066083      2.23596709      1.22297994
H       2.86503416      0.80661524     -1.05330296
H       2.85332054     -0.91935001     -0.98521282
H       1.97230129      1.24639498     -0.08075422
H       0.08974124     -2.33203320     -0.05967989
H      -2.06359462      1.08626212      0.10773090
