52
O=C1c2c(O)cccc2[C@@H]([C@@H]2O[C@H](CO)[C@@H](O)[C@H](O)[C@H]2O)c2cc(CO)cc(O)c21
O       3.57060434     -2.14548465      0.93848065
C       2.58937195     -1.82190864      0.26837472
C       1.55726754     -2.82356491     -0.07398208
C       1.77272090     -4.18329465      0.19760010
O       2.89391273     -4.65301048      0.82846250
C       0.83583757     -5.13852389     -0.18371238
C      -0.32583451     -4.74354419     -0.84150972
C      -0.55438775     -3.39175284     -1.10438449
C       0.37834617     -2.41229869     -0.71321135
C       0.07664464     -0.94325610     -0.96016672
C      -1.09775165     -0.42555210     -0.05921414
O      -1.74434152      0.67339360     -0.73911463
C      -2.92629222      1.14036583     -0.07527995
C      -3.51324573      2.28470570     -0.91521157
O      -4.67737069      2.82788099     -0.29772893
C      -2.62335228      1.60459252      1.36068288
O      -3.80858680      1.94426536      2.09167636
C      -1.91398362      0.48900290      2.12776813
O      -1.50295938      0.96406988      3.41996643
C      -0.68373270     -0.00307501      1.36399848
O      -0.09266044     -1.08432114      2.08354185
C       1.30225591     -0.04339656     -0.90863333
C       1.24725279      1.24707594     -1.46894181
C       2.33015792      2.13395146     -1.37226284
C       2.22414778      3.51756892     -1.95232754
O       1.30608542      4.28824431     -1.18807606
C       3.48451348      1.72319969     -0.70024846
C       3.55773856      0.44392724     -0.15426913
O       4.72999257      0.12642737      0.47867875
C       2.47945538     -0.44639917     -0.26378879
H       3.43369851     -3.87463839      1.09054311
H       1.01618662     -6.18883769      0.02905180
H      -1.05617297     -5.49018067     -1.14371475
H      -1.47328634     -3.10637354     -1.61378248
H      -0.26243907     -0.89375945     -2.00702307
H      -1.84417697     -1.22805481      0.01618321
H      -3.66992244      0.33265158     -0.04441464
H      -3.77783847      1.91890621     -1.91349698
H      -2.77657802      3.08558611     -1.04465075
H      -5.03623562      3.49012793     -0.91832924
H      -1.98433381      2.49636082      1.34919145
H      -4.38066260      2.44955680      1.47108785
H      -2.60040318     -0.34423073      2.32451217
H      -2.29265375      1.41805850      3.78052145
H       0.05054653      0.81042648      1.33751389
H      -0.05520707     -0.78387756      3.01562478
H       0.34095271      1.57983180     -1.97629988
H       1.87451072      3.47444142     -2.98894318
H       3.19209278      4.02928447     -1.94801352
H       1.45918636      4.06466914     -0.25345094
H       4.33760727      2.39048059     -0.59817113
H       4.63332247     -0.77971769      0.84889391
