37
COC(=O)/C(=C/c1ccccc1)S(=O)(=O)c1ccc([N+](=O)[O-])cc1
C      -2.60252089     -4.27311210     -2.44104819
O      -2.32394693     -2.95343504     -1.97090921
C      -1.38915889     -2.89959890     -0.99330698
O      -0.83805343     -3.85346934     -0.46211188
C      -1.17403354     -1.51376523     -0.57669462
C      -1.32553076     -1.24185369      0.73353992
C      -1.16686637      0.04457979      1.41360293
C      -0.10050548      0.21876858      2.30384409
C       0.07373080      1.43662714      2.96390009
C      -0.82296109      2.48116310      2.74700376
C      -1.89752553      2.30731491      1.87611385
C      -2.07331736      1.09037824      1.21437905
S      -0.72926544     -0.38987940     -1.79723170
O      -1.74798841      0.63975104     -1.91292384
O      -0.27441678     -1.08459358     -2.98959100
C       0.75092620      0.40243502     -1.17430228
C       1.88423605     -0.37853242     -0.91125274
C       3.03760771      0.23049324     -0.40980745
C       3.05021314      1.61661022     -0.18855609
N       4.25655403      2.25488291      0.35404621
O       4.26590631      3.49102548      0.44115985
O       5.19092079      1.51667657      0.69988690
C       1.92256076      2.39852997     -0.47747164
C       0.77040907      1.78817260     -0.97798806
H      -3.34250087     -4.19842210     -3.24326004
H      -1.69728395     -4.73580763     -2.84591177
H      -3.02236255     -4.88370671     -1.63558226
H      -1.58473806     -2.05370073      1.41712346
H       0.60622977     -0.58753337      2.48849512
H       0.90610243      1.56944381      3.65090420
H      -0.68948916      3.42919410      3.26305266
H      -2.60186884      3.11893182      1.71244946
H      -2.92239198      0.97439283      0.54241917
H       1.88123134     -1.45119361     -1.09820599
H       3.91362843     -0.38214942     -0.20228029
H       1.92228618      3.47486003     -0.31657025
H      -0.10581667      2.39652186     -1.19691443
