11
ClCCCCl
Cl     -1.60836198      1.67278453      0.48521251
C      -1.19856886     -0.05889228      0.48947682
C      -0.10251155     -0.38171868     -0.52052829
C       1.25109494      0.25448305     -0.22276073
Cl      1.95692076     -0.37486947      1.28468043
H      -0.91871576     -0.33837006      1.50869593
H      -2.11207011     -0.60375232      0.23212565
H      -0.42742070     -0.06186651     -1.51861201
H       0.01565856     -1.47140038     -0.57221676
H       1.95553267      0.02086044     -1.02698388
H       1.18844204      1.34274169     -0.13908967
