22
C1N2CN3CN1CN(C2)C3
C      -0.17570135      0.88111560     -1.41671840
N      -1.27646230      0.38104839     -0.60493574
C      -1.17567122      0.94536246      0.73376656
N       0.09253285      0.57095398      1.34385662
C       1.18374505      1.06969709      0.51848122
N       1.09952701      0.50625676     -0.82173356
C       1.17567185     -0.94536207     -0.73376650
N       0.08440272     -1.45825910      0.08281269
C      -1.18374496     -1.06969697     -0.51848104
C       0.17570102     -0.88111611      1.41671814
H      -0.24319446      1.97216814     -1.52627808
H      -0.24910557      0.49663650     -2.44323777
H      -2.01613298      0.61016695      1.35684137
H      -1.27799004      2.03865279      0.69910504
H       2.15314536      0.82987586      0.97641480
H       1.16359989      2.16731775      0.47632248
H       2.14479081     -1.25536465     -0.31944623
H       1.14933445     -1.39345369     -1.73650001
H      -1.29225793     -1.52211860     -1.51371663
H      -2.02448764     -1.47507409      0.06098027
H       1.10999239     -1.18888129      1.90593643
H      -0.61769491     -1.27992571      2.06357833
