43
CCCCCC1=C(OC(C)=O)CCC1CC(=O)OC
C       5.46396401      1.91617872     -0.84068614
C       4.10614139      1.46229574     -1.35230213
C       3.23367494      0.92056856     -0.22023617
C       1.86821245      0.46451461     -0.73932823
C       0.99573097     -0.07521648      0.39682530
C      -0.32953718     -0.57405185     -0.09152631
C      -0.74206844     -1.84879514     -0.14674820
O       0.06121804     -2.94237100      0.19643703
C      -0.52610734     -4.08984740      0.66117561
C       0.53860953     -5.11986448      0.89713138
O      -1.71518643     -4.28106562      0.87679571
C      -2.11377900     -1.98913385     -0.72096092
C      -2.32664576     -0.61476184     -1.35729504
C      -1.40510751      0.36068565     -0.59676247
C      -2.12146690      1.08218845      0.55036975
C      -3.07730711      2.13755500      0.04591213
O      -3.18292684      2.50457861     -1.11550802
O      -3.79746844      2.63424240      1.09193303
C      -4.73352662      3.64815100      0.72378507
H       5.35699278      2.71376712     -0.09856382
H       6.00624440      1.08576719     -0.37734587
H       6.07127753      2.29978193     -1.66647495
H       4.24969334      0.68813558     -2.11503778
H       3.60414625      2.30722483     -1.83789006
H       3.74266231      0.07862147      0.26464911
H       3.09602402      1.69745109      0.54172200
H       2.00723000     -0.31281624     -1.50132095
H       1.36852096      1.30897312     -1.22908227
H       0.83540076      0.70630420      1.14863740
H       1.53400970     -0.88191235      0.90984362
H       0.07447809     -6.04926391      1.23954303
H       1.07202211     -5.32262160     -0.03506255
H       1.22914070     -4.76912933      1.66816277
H      -2.85348353     -2.16468279      0.06661432
H      -2.18063272     -2.78139400     -1.47207686
H      -2.01858604     -0.65429361     -2.41133564
H      -3.38165250     -0.32251545     -1.34525213
H      -0.99054543      1.08497484     -1.30725394
H      -2.68425308      0.36691365      1.16223707
H      -1.39246375      1.59080236      1.19167444
H      -5.47094293      3.25162903      0.01883667
H      -4.21428879      4.51245041      0.29801362
H      -5.25741795      3.96998139      1.62804732
