8
ClCC(Cl)(Cl)Cl
Cl      1.98925153     -0.95689338      0.09222981
C       0.73841151      0.32408613      0.12547830
C      -0.69320477     -0.18025912     -0.10114233
Cl     -1.19544133     -1.33658853      1.17115279
Cl     -1.81488976      1.22695874     -0.03660450
Cl     -0.87590675     -0.94983864     -1.70814008
H       1.02244164      1.05312954     -0.64150655
H       0.82933792      0.81940526      1.09853256
