39
CCC(C)(C)C1CCCCC1OC(C)=O
C      -1.22520707     -2.23383883      1.38650824
C      -1.38855993     -1.78921920     -0.06205723
C      -1.54538211     -0.25295905     -0.29563865
C      -1.62936564     -0.04123366     -1.82548297
C      -2.91531921      0.16506788      0.29817163
C      -0.37841564      0.61749498      0.34561723
C      -0.68899864      2.13798303      0.31971065
C       0.39384068      2.97775784      0.99309292
C       1.75919662      2.72596646      0.37701498
C       2.10353672      1.24736288      0.42224905
C       1.03744644      0.37942494     -0.26406287
O       1.42901884     -0.99281422     -0.07800358
C       2.30778472     -1.50133218     -0.98513113
C       2.62036678     -2.92652995     -0.64523218
O       2.77967945     -0.90036867     -1.93926879
H      -0.29812024     -1.85965681      1.82799250
H      -1.18819492     -3.32746967      1.43388954
H      -2.06379124     -1.90665190      2.00721374
H      -2.27457240     -2.30087641     -0.46370112
H      -0.55595276     -2.18504972     -0.65157731
H      -1.76907453      1.01192200     -2.08675211
H      -0.72923398     -0.40046734     -2.33438626
H      -2.47745841     -0.59200544     -2.24996594
H      -3.23107579      1.15060050     -0.06062946
H      -3.70646732     -0.53626098      0.00788880
H      -2.88472905      0.19756140      1.39228737
H      -0.32583282      0.33437103      1.40580631
H      -0.80795260      2.48242215     -0.71372889
H      -1.62811227      2.34943270      0.84055969
H       0.14123958      4.04065801      0.90572159
H       0.42345744      2.74450445      2.06461034
H       2.52048185      3.30087483      0.91602297
H       1.76814256      3.07623999     -0.66225044
H       2.22440525      0.92282396      1.46435238
H       3.08051004      1.08650938     -0.04892327
H       1.00831558      0.62879715     -1.33191022
H       3.34834560     -3.31848377     -1.36126839
H       3.05437697     -2.98207825      0.35628190
H       1.71167147     -3.53047951     -0.70502100
