23
Cc1cc(C)c2ccccc2n1
C       3.48278547     -0.09767633      0.01420646
C       1.98532030     -0.02449237      0.01231139
C       1.34698781      1.19716237      0.17227869
C      -0.05065338      1.24364799      0.16756173
C      -0.73555610      2.57137484      0.34148844
C      -0.77536775      0.03942735     -0.00077526
C      -2.18839190     -0.03075391     -0.02137145
C      -2.84861385     -1.24724959     -0.19085797
C      -2.10935185     -2.41123438     -0.34224009
C      -0.71445239     -2.35060399     -0.32307668
C      -0.03214997     -1.15291417     -0.15595746
N       1.31064940     -1.18353279     -0.14952787
H       3.82310973     -1.12922471     -0.12244121
H       3.87805828      0.26795303      0.96702202
H       3.89196696      0.50678179     -0.80125894
H       1.93403753      2.10186682      0.29907904
H      -0.01213631      3.38570119      0.45715878
H      -1.36333511      2.56148844      1.23828274
H      -1.34937969      2.80103079     -0.53539408
H      -2.79033443      0.86686849      0.09512010
H      -3.93474742     -1.28257883     -0.20417526
H      -2.60898573     -3.36692230     -0.47523875
H      -0.13945959     -3.26611975     -0.44219438
