32
CCN(CC)C(=O)SCc1ccccc1Cl
C      -2.49775975      2.35589730      0.56355458
C      -2.44227709      1.07011011      1.37453415
N      -2.40642672     -0.11826219      0.51452304
C      -3.69560667     -0.69486973      0.13789329
C      -4.15368697     -1.74927644      1.13346684
C      -1.25793977     -0.73997880      0.02810904
O      -1.28440548     -1.75465724     -0.66056505
S       0.27936326     -0.00254366      0.44957980
C       1.33737157     -0.85263930     -0.75538611
C       2.76177554     -0.35405501     -0.68660373
C       3.67442034     -1.01827717      0.15466799
C       4.99822854     -0.58762046      0.26090947
C       5.43177425      0.51676743     -0.46654306
C       4.53984164      1.19295394     -1.29789435
C       3.21243484      0.76456190     -1.40672076
Cl      2.16921903      1.66400856     -2.45089564
H      -2.52759897      3.22332320      1.23008308
H      -3.39016964      2.38285467     -0.07010845
H      -1.62549090      2.45673447     -0.08948016
H      -1.57531750      1.08688417      2.04071694
H      -3.32325296      1.00217492      2.02329369
H      -3.61857375     -1.14922603     -0.85644710
H      -4.43767629      0.10777795      0.06368179
H      -3.43171180     -2.56975874      1.19940047
H      -4.26633273     -1.32348183      2.13569721
H      -5.11850197     -2.16604036      0.82870166
H       1.32268880     -1.92928919     -0.54695744
H       0.93708298     -0.73362829     -1.76782523
H       3.35317568     -1.87936121      0.73866169
H       5.68926143     -1.11379802      0.91518317
H       6.46164676      0.85443668     -0.38386993
H       4.88444427      2.05827835     -1.85867055
