43
OCC(O)C(O)C(O)C=NN(c1ccccc1)c1ccccc1
O       4.38784324      2.66226940     -0.27219410
C       4.75913734      1.64917974      0.66594972
C       3.61781688      0.63418658      0.82844794
O       2.42761685      1.35276567      1.16269507
C       3.40271101     -0.20268089     -0.44691374
O       3.24768862      0.64314847     -1.60509046
C       2.23074000     -1.18747940     -0.36190661
O       2.22161516     -1.95366207     -1.58066399
C       0.86366712     -0.54134847     -0.27821264
N      -0.13709106     -1.23445422      0.17188224
N      -1.34482852     -0.56834966      0.14766885
C      -1.51593356      0.53435475      1.04935389
C      -2.41218401      1.57273849      0.73776159
C      -2.57566269      2.66729498      1.59122826
C      -1.83851262      2.74661577      2.76969877
C      -0.93763381      1.73506260      3.09286807
C      -0.77677545      0.64042032      2.23855318
C      -2.41613463     -1.32470792     -0.43351130
C      -2.18308177     -2.13257145     -1.56236035
C      -3.21081515     -2.87458019     -2.15252063
C      -4.49551981     -2.82914746     -1.61977353
C      -4.75030971     -2.04670345     -0.49711630
C      -3.72017441     -1.30404429      0.09001934
H       4.07576869      2.19146984     -1.07704073
H       4.95041962      2.15575029      1.61700664
H       5.68417969      1.17122962      0.32973073
H       3.84135324     -0.03802104      1.66396237
H       2.47859303      2.20181662      0.67490954
H       4.31897485     -0.77663044     -0.63621357
H       3.01770694      0.02660505     -2.33335657
H       2.36401558     -1.88403910      0.47283559
H       1.50039012     -2.60510175     -1.47189448
H       0.74609774      0.47924043     -0.68382632
H      -2.97787210      1.54033557     -0.19057544
H      -3.27211733      3.45939691      1.32974131
H      -1.96046429      3.59870704      3.43310747
H      -0.35378384      1.79537802      4.00742010
H      -0.07205744     -0.14014055      2.51323434
H      -1.18972014     -2.17488892     -1.99968682
H      -3.00467135     -3.48571471     -3.02693101
H      -5.29562658     -3.40706236     -2.07444100
H      -5.74872835     -2.01754370     -0.06871067
H      -3.94663709     -0.72909413      0.98403534
