29
COP(=S)(OC)Oc1ccc([N+](=O)[O-])c(C)c1
C      -3.81573254     -1.15014134     -1.92825185
O      -3.54290565     -0.63320089     -0.64063233
P      -2.09059598     -0.93163562      0.01599385
S      -1.66677252     -2.80196480      0.31596265
O      -2.14957974      0.02225070      1.32460841
C      -3.09705191     -0.27644506      2.33055248
O      -1.12259006     -0.09557866     -0.97162159
C       0.20196546      0.17583267     -0.77564062
C       0.86099531      0.75456801     -1.86179107
C       2.21297690      1.08225526     -1.77066127
C       2.90389597      0.82710852     -0.57819875
N       4.31253924      1.20822037     -0.52634658
O       5.02163745      0.87706889     -1.48673949
O       4.69719908      1.85454204      0.45717733
C       2.26591955      0.23092029      0.52551905
C       2.97001596     -0.07037927      1.82009277
C       0.89628263     -0.07567902      0.40994789
H      -4.71984831     -0.66994309     -2.31123956
H      -3.99039582     -2.22735172     -1.87048177
H      -2.99137547     -0.94210348     -2.61544085
H      -2.79208673     -1.17048328      2.88003657
H      -3.13966311      0.56391951      3.02819012
H      -4.09088994     -0.42378854      1.89999817
H       0.31968041      0.95362025     -2.78411337
H       2.71446271      1.53578699     -2.62332999
H       3.94297721     -0.53745366      1.63679676
H       2.39410343     -0.77558969      2.42946460
H       3.10315423      0.84663181      2.40207315
H       0.39168224     -0.51222028      1.26807529
