20
CN=C(SC)N(C)C
C       0.89813160      2.35877229      0.99891221
N      -0.13068046      1.35482726      0.79141794
C       0.01361056      0.40055206     -0.06668786
S       1.49721800      0.21609433     -1.01499574
C       2.32549181     -0.96584492      0.07094274
N      -0.99025096     -0.54149202     -0.26862437
C      -2.24080726     -0.37689359      0.47199528
C      -1.12589344     -1.27568381     -1.52307335
H       1.81369258      1.92501073      1.41300205
H       1.12186337      2.91283112      0.08150959
H       0.53340870      3.08900198      1.72875582
H       1.74326063     -1.88782859      0.15051875
H       2.46393416     -0.54123534      1.06875724
H       3.30751858     -1.20970944     -0.34272863
H      -2.82518203      0.45141147      0.05772882
H      -2.85014291     -1.28613047      0.42692650
H      -2.05070134     -0.18340096      1.53342719
H      -1.99290284     -1.94554922     -1.50629620
H      -1.25749207     -0.58410455     -2.36205278
H      -0.25407669     -1.91062834     -1.70943521
