38
N#CCCN(CCC#N)C(Cc1ccc(O)cc1)C(=O)O
N       3.03651581     -4.21026919     -3.01563310
C       2.97715246     -3.12517094     -2.60940262
C       2.90172527     -1.75287058     -2.09075587
C       1.83590171     -1.65500813     -0.98747572
N       1.63247829     -0.26588067     -0.50101985
C       2.74195943      0.14591857      0.39735970
C       2.74370149      1.63203182      0.79179479
C       3.98343103      1.96574550      1.50629456
N       4.96697854      2.21760190      2.06772543
C       0.27694730     -0.06640192      0.12263848
C      -0.87781510     -0.20994150     -0.89814136
C      -2.17082363      0.40306587     -0.40278680
C      -2.39538041      1.78155985     -0.52723644
C      -3.57742906      2.34889450     -0.05002281
C      -4.53579009      1.54227645      0.55079387
O      -5.67547144      2.13910680      1.00176901
C      -4.33271952      0.17306818      0.68403604
C      -3.14935278     -0.39543113      0.20762809
C       0.04477162     -1.00200970      1.31392998
O      -0.34544673     -2.15815676      1.27674959
O       0.38059460     -0.43406103      2.49301838
H       3.88800403     -1.46441364     -1.71411596
H       2.65263029     -1.06713031     -2.90914992
H       0.90724952     -2.04580332     -1.41738765
H       2.08983722     -2.32469749     -0.15475879
H       3.69273663     -0.04214850     -0.11573041
H       2.76463394     -0.47932442      1.29939624
H       1.89446549      1.86885196      1.44014107
H       2.65940026      2.25630094     -0.10519436
H       0.21716402      0.96247697      0.49460151
H      -1.06650511     -1.25927240     -1.15531553
H      -0.60656985      0.28719879     -1.83927470
H      -1.65475277      2.42322353     -0.99928307
H      -3.75216199      3.41657135     -0.14892464
H      -6.25919105      1.45493828      1.36841532
H      -5.07674550     -0.46427119      1.15130236
H      -2.99690856     -1.46836097      0.31560530
H       0.18478461     -1.12820748      3.15840989
