12
O=C1CCCO1
O       2.57286920     -0.52758314     -0.02249955
C       1.36001653     -0.40522129      0.02033803
C       0.61723132      0.89627694      0.04955359
C      -0.77820956      0.46633620     -0.32610758
C      -0.84345499     -0.93605065      0.21951609
O       0.48181814     -1.44925325      0.08898327
H       0.65781634      1.30826623      1.06185823
H       1.02904111      1.60338726     -0.67390594
H      -1.56024916      1.12029417      0.06833370
H      -0.87311987      0.44385315     -1.41873570
H      -1.53964535     -1.56264516     -0.34528868
H      -1.12411371     -0.95766047      1.27795456
