16
N#Cc1ccc(C(=O)O)cc1
N       4.41945477      0.33684752      0.59091346
C       3.27188364      0.23132798      0.45450480
C       1.85364410      0.10228365      0.28571179
C       1.24379110     -1.15199945      0.39838090
C      -0.13940414     -1.27692252      0.23361473
C      -0.92165993     -0.14841903     -0.04487442
C      -2.38434417     -0.33053586     -0.21138042
O      -2.98340790     -1.38624423     -0.12796156
O      -3.02581603      0.82095842     -0.47468723
C      -0.31005810      1.10680066     -0.15745564
C       1.07378679      1.23073170      0.00755033
H       1.83769888     -2.03876232      0.61444872
H      -0.60467365     -2.25758212      0.32324098
H      -3.96572628      0.55420508     -0.55854545
H      -0.90087158      1.99455671     -0.37326524
H       1.53570249      2.21275379     -0.08273283
