26
CC(=O)O.OCCNCCO
C      -0.95381370     -0.09818633     -0.09370632
C       0.46896155      0.29511649      0.12897766
O       0.87035554      1.37803908      0.51824899
O       1.32730124     -0.70269838     -0.15150083
O      -3.38315730      0.12778979     -0.25420972
C      -2.04688362     -0.22823290      0.08563590
C      -1.06393154      0.84853515     -0.39610582
N       0.33298077      0.64415992      0.00342881
C       0.93811010     -0.51251354     -0.67846428
C       2.45785705     -0.52562963     -0.47416356
O       2.77686665     -0.41214530      0.91111986
H      -1.10454350     -0.36533562     -1.14252890
H      -1.21280886     -0.93639056      0.55779352
H      -1.60465862      0.74669150      0.14860414
H       2.20920635     -0.31723617      0.03411174
H      -3.59525246      0.95390657      0.21362539
H      -1.99234772     -0.35546024      1.17190637
H      -1.83413773     -1.19339822     -0.38324670
H      -1.38659964      1.81458876      0.01159138
H      -1.14163218      0.96557321     -1.48435441
H       0.36756628      0.46888899      1.00941974
H       0.73010905     -0.49185106     -1.75411139
H       0.51812457     -1.43497031     -0.26178877
H       2.88141185     -1.46293256     -0.84739156
H       2.93628404      0.30294151     -1.00750608
H       2.50463183      0.49074987      1.15732690
