25
CCC(C)(CC)OC(N)=O
C       0.42775585      2.31226864      0.78459532
C       0.30839781      1.55709221     -0.53461870
C      -0.18219638      0.09038508     -0.40905409
C      -0.13958717     -0.59600357     -1.78648220
C      -1.63609785      0.07301705      0.13892253
C      -2.26165923     -1.31541810      0.24749765
O       0.60301746     -0.65414869      0.56158232
C       1.92167567     -0.86207522      0.37294998
N       2.41626786     -1.57946725      1.40564490
O       2.60676575     -0.48304792     -0.56090663
H      -0.54767958      2.45456569      1.25776561
H       0.85094206      3.30630649      0.60539414
H       1.08451779      1.79348606      1.48880370
H       1.29482913      1.58111434     -1.01181449
H      -0.36298255      2.11296434     -1.20140886
H      -0.91322510     -0.19855742     -2.45225033
H      -0.26977764     -1.67974914     -1.69731071
H       0.82295842     -0.44451153     -2.28560234
H      -2.28163408      0.70132204     -0.48684279
H      -1.64991357      0.49824146      1.14956681
H      -3.24402385     -1.24366025      0.72605525
H      -1.64427646     -1.98804158      0.85046989
H      -2.41057705     -1.76716962     -0.73747549
H       1.80875293     -1.85903483      2.15914606
H       3.39774977     -1.80987827      1.41537248
