24
NCCCCC(N)C(=O)O
N      -4.04674719      0.70485013      0.33133985
C      -2.66983354      0.66798087      0.81119796
C      -1.75292094     -0.01923872     -0.20041738
C      -0.30589828     -0.05778500      0.30059323
C       0.61157102     -0.75329660     -0.71407699
C       2.09981825     -0.76858099     -0.33548767
N       2.32836196     -1.47926120      0.94468421
C       2.69320414      0.64853311     -0.31067259
O       2.43690833      1.55974059     -1.08114180
O       3.61057806      0.83008326      0.66704313
H      -4.08269445      1.18987962     -0.56479159
H      -4.36931359     -0.24457535      0.14679947
H      -2.33071013      1.69311243      0.99537468
H      -2.64218317      0.13807735      1.76944917
H      -2.10304372     -1.04286377     -0.38394847
H      -1.79334567      0.51304164     -1.15912723
H      -0.27529173     -0.58656234      1.26000115
H       0.04123661      0.96593052      0.48171432
H       0.26892264     -1.78725436     -0.85209584
H       0.50008607     -0.25959541     -1.68826438
H       2.65215795     -1.31352737     -1.11032880
H       3.32941639     -1.41058674      1.14965386
H       1.89340962     -0.94441576      1.69715795
H       3.90631137      1.75631411      0.53912912
