7
O=[Nb](=O)O[Nb](=O)=O
O       2.86105604     -1.33162720     -0.06466922
Nb      1.35050855      0.19207559      0.12341537
O       1.79872493      1.62791905      0.60192473
O      -0.04175374     -0.48533249     -1.01195548
Nb     -1.50466532     -0.42554640     -0.55193569
O      -2.21571009      1.67953088     -0.23322554
O      -2.24816038     -1.25701942      1.13644582
