24
O=C(O)C(O)(CO)CC(O)CO
O      -1.71311533      1.38605068      1.48707110
C      -1.72232110      0.81834734      0.40549683
O      -2.31328138      1.38167852     -0.67569066
C      -1.12718046     -0.56126730      0.08873754
O      -1.56356567     -1.03103081     -1.19730547
C      -1.68336150     -1.53675008      1.14677894
O      -1.14678891     -1.33022509      2.45218428
C       0.41103083     -0.52102721      0.11890927
C       1.03127152      0.32403981     -1.00219400
O       0.71992276      1.70222657     -0.77235272
C       2.55896908      0.18397650     -1.04694067
O       3.11102352      0.73374202      0.15102470
H      -2.55561506      2.28184446     -0.36920780
H      -1.84044679     -0.22681390     -1.68566685
H      -1.45748988     -2.56994536      0.85870648
H      -2.77606522     -1.46771134      1.20925520
H      -1.35929996     -0.41254561      2.71626707
H       0.74567051     -0.13500756      1.09013138
H       0.78732969     -1.54732867      0.01868134
H       0.62037282      0.03955327     -1.97597362
H       1.36932751      1.99852134     -0.09930548
H       2.96559342      0.75820399     -1.88553379
H       2.86415913     -0.86261565     -1.13996184
H       4.07386045      0.59408407      0.10688878
