32
CC(=O)Oc1ccc(NC(=O)c2ccccc2)cc1
C      -6.75696692     -0.15952237     -0.36776000
C      -5.32600562      0.27620466     -0.47926408
O      -4.96225081      1.31403244     -1.01496703
O      -4.52018786     -0.68871072      0.11794633
C      -3.13990890     -0.44937547      0.11111445
C      -2.32298233     -1.44848863     -0.40930608
C      -0.93424270     -1.28435133     -0.39565038
C      -0.36186479     -0.13209496      0.14985176
N       1.02641256      0.11384268      0.18993921
C       2.04248008     -0.74327638     -0.19302040
O       1.92570593     -1.90523340     -0.56263308
C       3.41406860     -0.16944645     -0.08842655
C       4.46243235     -1.01002728      0.30516780
C       5.75944551     -0.50673439      0.41540131
C       6.01448202      0.83283965      0.12234241
C       4.97704793      1.66989884     -0.28967182
C       3.67704483      1.17143738     -0.40030737
C      -1.20145896      0.85630036      0.68512747
C      -2.58968941      0.69634238      0.67782466
H      -7.40151898      0.59275884     -0.83143392
H      -6.89728606     -1.10863670     -0.89103255
H      -7.03463291     -0.25432102      0.68498119
H      -2.75494058     -2.35214135     -0.82911251
H      -0.32581806     -2.07505415     -0.82343577
H       1.30265486      0.99320434      0.60622533
H       4.26835675     -2.05773867      0.52676947
H       6.57073701     -1.16151365      0.72398351
H       7.02689075      1.22176189      0.20330899
H       5.18522196      2.70825008     -0.53682176
H       2.89046643      1.82907809     -0.76005236
H      -0.78866226      1.76343601      1.11832473
H      -3.22503040      1.46727927      1.10325589
