38
CC(C)CNC(=O)c1cc(N2CC2)c([N+](=O)[O-])cc1[N+](=O)[O-]
C       4.56679361      0.20411454      0.02632474
C       4.08175533     -1.16956899     -0.43728971
C       3.97347910     -1.21983707     -1.96158522
C       2.77374046     -1.57808133      0.25637756
N       1.66143739     -0.68183517     -0.00825675
C       0.58618518     -0.62633273      0.84842514
O       0.51702577     -1.26373506      1.89335680
C      -0.57667670      0.20993875      0.45468484
C      -1.85289656     -0.29073021      0.79256667
C      -3.03432283      0.42232018      0.51269056
N      -4.33835552     -0.03948676      0.82312376
C      -4.65477500     -1.46974349      0.75834938
C      -4.57324788     -0.76726642      2.07535917
C      -2.88082648      1.67361274     -0.11228789
N      -4.05321964      2.45997383     -0.42865988
O      -4.44405601      3.25469556      0.43577569
O      -4.51854283      2.32928658     -1.56856275
C      -1.63595581      2.21525564     -0.45039944
C      -0.49622907      1.46402551     -0.15417121
N       0.77826358      2.04748910     -0.48589597
O       1.21835505      2.91159347      0.27851817
O       1.30365445      1.65335303     -1.53583573
H       4.66416823      0.23395580      1.11658216
H       5.54881444      0.43074838     -0.40239339
H       3.87971474      1.00056661     -0.27573185
H       4.84268923     -1.90405234     -0.14199771
H       3.61981472     -2.20150402     -2.29397558
H       3.28765752     -0.46034287     -2.34965744
H       4.95266435     -1.04577721     -2.42079996
H       2.93360937     -1.63421625      1.33979640
H       2.46490775     -2.57654472     -0.07479728
H       1.58193643     -0.31497332     -0.95241955
H      -1.90495789     -1.25890146      1.29071326
H      -5.63315352     -1.66414852      0.33823512
H      -3.86261998     -2.13547527      0.45005008
H      -5.49435567     -0.47649905      2.56370128
H      -3.72023887     -0.92537924      2.71937564
H      -1.56223644      3.19350183     -0.92178684
