27
NC(=O)NN=C[C@H](O)[C@@H](O)[C@H](O)CO
N       1.49704250      1.02777973      3.63252409
C       2.73573513      0.76549802      3.14505129
O       3.75693016      1.03926777      3.76224236
N       2.74582279      0.16926884      1.90932287
N       1.59602400     -0.07576501      1.20884350
C       1.77921873     -0.61898565      0.04677603
C       0.61935507     -1.01463244     -0.85006663
O       1.04521027     -0.90864818     -2.21425151
C      -0.63413981     -0.14716979     -0.66294419
O      -0.36154747      1.12219584     -1.29380637
C      -1.87072624     -0.81769721     -1.31751303
O      -1.72022203     -0.92108120     -2.74359134
C      -3.14998097     -0.01179420     -1.06706772
O      -3.03955956      1.26514912     -1.70245683
H       1.45456994      1.65164725      4.42413030
H       0.78331019      1.09656934      2.91963755
H       3.65813017     -0.03211348      1.51452619
H       2.78711493     -0.88768243     -0.31941335
H       0.41303634     -2.07049443     -0.64476024
H       1.01609045      0.05779890     -2.39948702
H      -0.83917549      0.03244233      0.39796619
H      -1.22017881      1.59905129     -1.33569872
H      -2.00145223     -1.82895886     -0.91673076
H      -0.79018756     -1.16947292     -2.92624229
H      -3.32373385      0.14393336      0.00159721
H      -4.02060195     -0.51804221     -1.49665065
H      -2.91608473      1.05193624     -2.65205235
