67
CCOC(=O)[C@H](CCc1ccccc1)N[C@@H](C)C(=O)N1CCC[C@H]1C(=O)O.O=C(O)/C=C\C(=O)O
C      -2.33178011      3.08522464     -1.86817422
C      -2.02899020      1.81557446     -2.64532308
O      -1.80436901      0.73381204     -1.72745643
C      -0.53372026      0.58173939     -1.26399496
O       0.41651214      1.26145304     -1.64184011
C      -0.40839661     -0.56998194     -0.23869007
C      -1.70688571     -1.39139540     -0.05904330
C      -2.78781459     -0.68349006      0.77156279
C      -4.12743462     -1.36643249      0.65255340
C      -5.08432940     -0.89333253     -0.25485720
C      -6.32651491     -1.51960385     -0.36019941
C      -6.61900842     -2.62688545      0.43300924
C      -5.66671212     -3.11571439      1.32593716
C      -4.42579883     -2.48856911      1.43688884
N       0.06113145     -0.12867579      1.10437094
C       1.33459920      0.62100971      1.12227145
C       1.58639005      1.09686714      2.55793804
C       2.51294690     -0.28202171      0.71092784
O       2.52338516     -1.49506077      0.95955306
N       3.61996252      0.29791615      0.13692717
C       3.72885886      1.65787332     -0.37218795
C       5.17379403      1.78855279     -0.82561610
C       5.53644766      0.36989453     -1.25816194
C       4.76736277     -0.51461336     -0.26966470
C       5.60779812     -0.90670955      0.96038284
O       6.68733488     -0.41097240      1.26489452
O       5.00670590     -1.85128317      1.73030391
O      -1.08377607      1.43550220     -0.98671597
C      -1.35953942      0.69897614     -0.06222173
O      -2.59205503      0.21396075      0.14346089
C      -0.47027317      0.27405522      1.02102581
C       0.73827205     -0.26084734      0.81202531
C       1.25813210     -0.60143846     -0.51805984
O       0.62755869     -0.94711090     -1.49881465
O       2.59803433     -0.53052619     -0.52001249
H      -1.49196317      3.37003463     -1.23122681
H      -2.55455771      3.91698829     -2.54456291
H      -3.19034138      2.93247906     -1.20833686
H      -1.17982618      1.94680061     -3.32608172
H      -2.89616606      1.54534307     -3.25479425
H       0.32362280     -1.25571114     -0.68740850
H      -1.45736380     -2.34428979      0.43077474
H      -2.10077329     -1.66736123     -1.04647682
H      -2.49909762     -0.66889570      1.83011185
H      -2.89174504      0.36706506      0.48174737
H      -4.86763873     -0.03641705     -0.88264674
H      -7.07181112     -1.13268859     -1.05335855
H      -7.59081083     -3.10835166      0.35471118
H      -5.89521978     -3.98408119      1.93883457
H      -3.69561374     -2.87666093      2.14359310
H       0.20781281     -0.98027335      1.66238027
H       1.26413148      1.52055217      0.50992742
H       2.47130783      1.74380125      2.59452341
H       1.76269360      0.26069394      3.24626341
H       0.73432376      1.68390714      2.92777753
H       3.04144430      1.75794721     -1.21753556
H       3.46654706      2.38779306      0.39867432
H       5.30428810      2.52078416     -1.63117805
H       5.80376797      2.08927776      0.01816353
H       6.61929745      0.19544321     -1.25682269
H       5.16482234      0.19044475     -2.27749487
H       4.44035649     -1.43995102     -0.76424471
H       4.06703761     -1.99984897      1.46237460
H      -3.10487783      0.53988839     -0.62484623
H      -0.83735636      0.45444265      2.02136979
H       1.39300306     -0.48881261      1.64642035
H       2.83287763     -0.78808986     -1.43363123
