25
C=CCCCCCCO
C       4.27748232      0.71905428      0.24422318
C       3.12043252      0.17111381      0.63660790
C       2.51138822     -1.04900637      0.00585067
C       1.20627864     -0.75951207     -0.74287521
C       0.05739399     -0.33400667      0.17654875
C      -1.24158387     -0.14765133     -0.61087877
C      -2.38871507      0.27921681      0.30240282
C      -3.68520437      0.46636096     -0.47456708
O      -4.72862605      0.84478013      0.41319126
H       4.67462195      1.59644605      0.74553884
H       4.85299747      0.31017864     -0.58047093
H       2.58867302      0.61540343      1.47525869
H       2.33459035     -1.79802366      0.78700359
H       3.22111851     -1.50006222     -0.69905340
H       1.37763284      0.01385593     -1.50224665
H       0.91240346     -1.66973757     -1.28065144
H      -0.09098649     -1.09324758      0.95394374
H       0.30777925      0.60512398      0.68285818
H      -1.50368221     -1.08574091     -1.11510845
H      -1.09255087      0.60851975     -1.39126075
H      -2.13469890      1.21380083      0.81790549
H      -2.54381754     -0.46632669      1.09222206
H      -3.98268399     -0.46492580     -0.96644267
H      -3.58293142      1.24170372     -1.24064751
H      -4.46731176      1.68268256      0.83181309
