21
Cc1ccc(C)c(C)c1
C      -3.12723897      0.36565944     -0.42164173
C      -1.67542327      0.00848718     -0.30435614
C      -1.24237871     -1.29319307     -0.56419829
C       0.10487497     -1.62999966     -0.42404447
C       1.04625030     -0.67554844     -0.01155921
C       2.48881735     -1.07667766      0.12927885
C       0.61667667      0.63620645      0.26936149
C       1.58191892      1.69661845      0.72390142
C      -0.74266755      0.96133576      0.12335638
H      -3.63039102      0.20632924      0.53699415
H      -3.62005840     -0.24497566     -1.18552274
H      -3.24884110      1.41334320     -0.71625818
H      -1.95050767     -2.05601067     -0.87903499
H       0.41503653     -2.65038295     -0.63845186
H       3.11952878     -0.46677587     -0.52516285
H       2.81635178     -0.95876531      1.16699753
H       2.64403212     -2.12453652     -0.14906866
H       1.07585730      2.65080425      0.90539756
H       2.34513009      1.86911234     -0.04147244
H       2.06344964      1.39684122      1.66003317
H      -1.08041773      1.97212828      0.34545100
