62
CCCCCCCN(CC)CCCC(O)c1ccc(NS(C)(=O)=O)cc1
C       7.59329924      1.07771621     -1.09281114
C       6.58244686      1.40863770     -0.00581280
C       5.22568782      1.78316314     -0.60280664
C       4.20151289      2.23097892      0.44338801
C       3.85838710      1.19979129      1.52301119
C       3.33223356     -0.15016064      1.01760916
C       2.01617418     -0.02623833      0.23355795
N       1.35791058     -1.28680684     -0.17795014
C       2.20070703     -2.12269231     -1.06065185
C       2.57507083     -1.44511114     -2.37464831
C       0.87878828     -2.10034318      0.95732015
C      -0.24197472     -1.46821506      1.79547712
C      -1.61061687     -1.35458285      1.10475836
C      -1.69578006     -0.30375032     -0.01169494
O      -1.13778901     -0.81076352     -1.21928739
C      -3.14023023      0.07832612     -0.27794559
C      -3.69566140      1.20325659      0.35030804
C      -5.03228326      1.55156812      0.13734681
C      -5.83100405      0.77729337     -0.70090044
N      -7.20228854      1.09397667     -0.91720427
S      -8.27320409      1.08552514      0.38091737
C      -8.13634356     -0.58591343      0.98567858
O      -9.59207470      1.22778278     -0.20032648
O      -7.80956326      1.98821443      1.41103805
C      -5.29183861     -0.34032081     -1.33732821
C      -3.95670776     -0.69037038     -1.12147241
H       8.55478035      0.80556688     -0.64607241
H       7.75655149      1.93611105     -1.75192655
H       7.25105647      0.23552826     -1.70280294
H       6.48169817      0.54019096      0.65358346
H       6.96495653      2.23753500      0.60069785
H       4.82962015      0.94108912     -1.18037233
H       5.36351345      2.60615018     -1.31550825
H       3.28413631      2.53634684     -0.07360724
H       4.57857283      3.13379516      0.94077064
H       4.74379802      1.01803415      2.14413026
H       3.10998901      1.64107504      2.19352637
H       4.09999346     -0.63667979      0.40742639
H       3.18408849     -0.78542720      1.89755532
H       2.18381058      0.57789593     -0.66495215
H       1.30986490      0.57331599      0.81817100
H       3.10623918     -2.46454636     -0.54591061
H       1.63645653     -3.02502302     -1.33016599
H       3.05859041     -2.16758324     -3.04079179
H       1.68781017     -1.05984769     -2.88787913
H       3.27683176     -0.62044671     -2.22473592
H       0.48274383     -3.05071732      0.57543622
H       1.71094242     -2.37085338      1.61746784
H      -0.38157961     -2.11284005      2.67406078
H       0.05707340     -0.49474712      2.19784349
H      -1.89480612     -2.34066617      0.71528739
H      -2.33555405     -1.10546958      1.89115754
H      -1.13618158      0.59970721      0.25707445
H      -0.18712275     -0.96431042     -1.02833545
H      -3.08981053      1.82163298      1.00933450
H      -5.43373962      2.43786608      0.62274173
H      -7.62945594      0.74414779     -1.77411375
H      -8.88182818     -0.71678821      1.77329572
H      -7.13860063     -0.74359463      1.39770174
H      -8.34184800     -1.27755374      0.16670438
H      -5.89430827     -0.95185292     -2.00252035
H      -3.54314085     -1.56350121     -1.62384238
