48
C=CC1CN2CCC1CC2C(O)c1ccnc2ccc(OC)cc12
C      -5.54628883      0.74235595      1.74241057
C      -4.77450293     -0.12587227      1.07567858
C      -3.46730085      0.24308643      0.41556873
C      -3.47064434     -0.09377811     -1.10037573
N      -2.18580499     -0.71358150     -1.53213280
C      -2.09565214     -2.04303153     -0.87995851
C      -2.22811625     -1.94697317      0.64776311
C      -2.25241675     -0.46577732      1.06639990
C      -0.97112813      0.16527827      0.48443014
C      -1.06422484      0.17360581     -1.05690002
C       0.27711562     -0.17720558     -1.77542670
O       0.00009060     -0.31326414     -3.18183773
C       1.34660514      0.88620841     -1.59668316
C       1.23355463      2.07260956     -2.33717268
C       2.17328869      3.06627951     -2.16352316
N       3.20602175      2.97368283     -1.30606107
C       3.33774040      1.84283451     -0.59745141
C       4.41328876      1.75825611      0.27447579
C       4.64913763      0.62798666      1.06264122
C       3.78918863     -0.45593532      0.97907533
O       3.88997753     -1.62337403      1.68260543
C       5.00686716     -1.75361513      2.55411535
C       2.69943494     -0.38948547      0.10589780
C       2.44132595      0.75197213     -0.69594805
H      -5.27079666      1.78653021      1.85489936
H      -6.47926818      0.42113404      2.19624845
H      -5.10641935     -1.15940630      0.99731021
H      -3.31580363      1.32719527      0.52070713
H      -4.30197117     -0.75756358     -1.37268702
H      -3.63686457      0.82573259     -1.67679394
H      -2.88069304     -2.69875346     -1.27751414
H      -1.15304604     -2.53428413     -1.14697535
H      -1.38129263     -2.45705226      1.12291765
H      -3.13508152     -2.46159150      0.98300325
H      -2.26411932     -0.37135317      2.15787670
H      -0.85802270      1.19221941      0.85213913
H      -0.10366327     -0.40239840      0.83567204
H      -1.32974507      1.19165279     -1.37812359
H       0.63775560     -1.15913549     -1.46261918
H      -0.90670628     -0.68459867     -3.20968338
H       0.42658470      2.21300244     -3.05048859
H       2.11818868      3.99329439     -2.72657110
H       5.09507773      2.60367237      0.34274853
H       5.51038469      0.63578589      1.72148316
H       5.94949196     -1.69986346      1.99937361
H       4.95186081     -2.74111989      3.02236021
H       4.97349258     -1.00426590      3.35187981
H       2.05309933     -1.26109581      0.06225717
