25
Nc1ccc2c(O)cccc2c1S(=O)(=O)O
N      -2.55002134      0.72277316      2.01681298
C      -1.43256161      0.74858387      1.16957899
C      -0.66326087      1.91181343      1.17965769
C       0.54335257      1.98927816      0.48655452
C       1.07197799      0.88230527     -0.20266900
C       2.31047308      0.95182355     -0.88575388
O       3.09864375      2.07420663     -0.87876874
C       2.82331960     -0.12331056     -1.59993599
C       2.12890075     -1.31878962     -1.61160814
C       0.91855201     -1.42382825     -0.92156313
C       0.33756131     -0.33387613     -0.21269535
C      -0.91538431     -0.37519480      0.49201990
S      -1.88202146     -1.87409614      0.45420036
O      -1.12467433     -2.92615160      1.09463100
O      -3.24713784     -1.58068455      0.85165208
O      -2.02243984     -2.24632118     -1.11111514
H      -2.99279599      1.62193749      2.17955000
H      -3.24115852     -0.00402265      1.80350551
H      -1.00067312      2.78513493      1.73461928
H       1.06325608      2.94400713      0.49986529
H       3.02018827      2.48648454     -0.00350930
H       3.77103784     -0.03188391     -2.12265801
H       2.52685811     -2.17750561     -2.14626879
H       0.43832616     -2.40008872     -0.95322770
H      -2.98031827     -2.30259445     -1.31287445
