7
O=P([O-])([O-])O.[Mg+2]
O      -1.08804598     -0.06662923      1.35726432
P      -0.43968557     -0.05821896     -0.00803643
O      -0.10312427      1.31829773     -0.55448944
O      -0.91279593     -1.05973716     -1.03644096
O       1.09196958     -0.48964159      0.28309034
Mg      0.00000000      0.00000000      0.00000000
H       1.45168217      0.35592921     -0.04138782
