26
O=C1c2cccc(O)c2C(=O)c2c(O)cccc21
O       0.40159044      2.77323576      0.81748367
C       0.23302479      1.60919254      0.47435217
C       1.39203653      0.74423873      0.17624630
C       2.68774276      1.26805198      0.28969471
C       3.79386948      0.46445350      0.01175544
C       3.60924461     -0.86073849     -0.37913046
C       2.32108943     -1.38019956     -0.49151424
O       2.22952050     -2.68925475     -0.88068131
C       1.20354678     -0.58124770     -0.21458523
C      -0.16271843     -1.12366678     -0.33123071
O      -0.33198845     -2.29259772     -0.67580553
C      -1.32647462     -0.26762563     -0.03564345
C      -2.63191285     -0.76622502     -0.14119926
O      -2.91601126     -2.05141259     -0.51675925
C      -3.72684353      0.04864722      0.13974414
C      -3.52792549      1.37207355      0.52960972
C      -2.23217575      1.87793230      0.63767185
C      -1.13120142      1.05701766      0.35472038
H       2.83955211      2.30259792      0.59458825
H       4.79912531      0.87062807      0.09969907
H       4.46857290     -1.49092241     -0.59680995
H       1.27907222     -2.93545681     -0.92253846
H      -2.06913199     -2.52041981     -0.68572514
H      -4.73515893     -0.35001895      0.05414657
H      -4.38216779      2.00875119      0.74907539
H      -2.08427735      2.91296580      0.94283533
