53
CC(C)CCCCCCCO.O=C(O)CC(C(=O)O)S(=O)(=O)O.[Na+].[Na+]
C      -4.67572363     -0.36622006      1.06658294
C      -3.54204867     -0.01778765      0.09879593
C      -3.76523187      1.38273847     -0.47359864
C      -2.18524015     -0.15195321      0.81470435
C      -0.98306052      0.03522022     -0.11573212
C       0.33285443     -0.23220311      0.61919126
C       1.53646882     -0.04156027     -0.30682727
C       2.85039876     -0.30668051      0.43127672
C       4.07957971     -0.23540263     -0.47510548
C       4.34571261      1.15545927     -1.03756623
O       5.54793709      1.14310939     -1.79765688
O       1.83867791      0.38691817      1.33541496
C       1.83058411     -0.06619593      0.20451417
O       2.60010968     -1.10898591     -0.14144439
C       0.97624804      0.42310872     -0.92846010
C      -0.50426201      0.31167519     -0.59139331
C      -0.91211287      1.10556568      0.61214517
O      -1.67872431      0.76245706      1.49913715
O      -0.42358633      2.36431454      0.59518730
S      -0.97538693     -1.39291044     -0.35923946
O      -0.86532920     -2.06953123     -1.63280410
O      -0.37486670     -1.92961983      0.83986110
O      -2.55002530     -1.18969495     -0.05027076
Na      0.00000000      0.00000000      0.00000000
Na      0.00000000      0.00000000      0.00000000
H      -4.55734019     -1.38323179      1.45524298
H      -5.64718479     -0.31394698      0.56357872
H      -4.69725535      0.32233970      1.91822690
H      -3.57542353     -0.73662978     -0.72969781
H      -4.76458948      1.46719500     -0.91426719
H      -3.04401247      1.61003299     -1.26428310
H      -3.67341674      2.14872313      0.30380300
H      -2.12424860     -1.14857181      1.27081940
H      -2.12573562      0.57312048      1.63649147
H      -1.07013966     -0.64566611     -0.97090028
H      -0.96875835      1.05679476     -0.51126273
H       0.41855434      0.44562665      1.47724014
H       0.33176478     -1.25558611      1.01371230
H       1.45186140     -0.72159177     -1.16301264
H       1.52665713      0.98085134     -0.70074621
H       2.96156629      0.40574594      1.25775905
H       2.81374853     -1.30720455      0.87987277
H       4.95847441     -0.56222506      0.09511527
H       3.98404122     -0.95178587     -1.30056641
H       4.44927700      1.89606888     -0.23820477
H       3.54037493      1.47696876     -1.70347334
H       6.27013817      0.88581801     -1.19951209
H       3.03960620     -1.39148000      0.68953446
H       1.26997004      1.45674905     -1.14265926
H       1.20337490     -0.15866767     -1.82983550
H      -1.09615583      0.67277731     -1.44100789
H      -0.72105288      2.76959235      1.43933457
H      -2.65706852     -0.94607210      0.90198588
