21
CN1C(=O)C(N)C(=S)N(C)C1=O
C       2.40749976     -1.30113479     -0.34283458
N       1.16892633     -0.54460918     -0.30348911
C       1.25877084      0.82397586     -0.47255504
O       2.31400189      1.40787849     -0.73695805
C       0.00064950      1.61737170     -0.19811739
N       0.06918928      2.13718618      1.19183432
C      -1.27983232      0.81691994     -0.34542339
S      -2.69981130      1.63911355     -0.76338299
N      -1.18646754     -0.54335112     -0.05648484
C      -2.39993912     -1.33865581      0.13291100
C       0.02633524     -1.21414201      0.11411296
O       0.08773875     -2.35601958      0.57462659
H       2.85690531     -1.27977685      0.65521696
H       3.11162513     -0.86549770     -1.05800687
H       2.22029180     -2.34124719     -0.62682554
H      -0.00535116      2.46018682     -0.90098869
H      -0.70102965      2.79472075      1.32843866
H       0.92331351      2.69474780      1.27667043
H      -3.01107113     -0.88214268      0.91823241
H      -2.96891851     -1.35163360     -0.80230356
H      -2.19282662     -2.37389056      0.41532672
