58
CCCCC(CC)COC(=O)OOC(=O)OCC(CC)CCCC
C       8.44754023     -0.22778532      1.18125266
C       7.49590538      0.84065831      1.69921582
C       6.37645151      1.19461903      0.71314066
C       5.41285009      0.02937997      0.45216590
C       4.22206444      0.36096694     -0.47487696
C       4.63037350      0.85133927     -1.88106360
C       5.52960508     -0.12124118     -2.63046751
C       3.26753930      1.37200315      0.19208330
O       2.06937237      1.54558349     -0.57948192
C       1.08384111      0.63982485     -0.35130890
O       1.14456922     -0.30478600      0.42298623
O       0.01688499      0.96435678     -1.13936057
O      -1.03216872     -0.02964362     -0.88337711
C      -1.82184672      0.46662156      0.11386788
O      -1.65153931      1.52261808      0.70675541
O      -2.83584189     -0.41034258      0.33287967
C      -3.74088919     -0.01582252      1.37013237
C      -4.96662324     -0.95171573      1.37941628
C      -4.53311090     -2.36835551      1.81876241
C      -5.69494335     -3.33002760      2.04016105
C      -5.70337811     -0.99035302      0.02057874
C      -6.07937495      0.39455845     -0.52030206
C      -6.99296517      0.28450377     -1.74546119
C      -7.28901688      1.65477458     -2.34110279
H       7.95592412     -1.20382557      1.12075209
H       9.30192332     -0.33083902      1.86065505
H       8.83028741      0.02883090      0.18750149
H       7.06598324      0.51310473      2.65242937
H       8.07118856      1.75089965      1.90914814
H       6.82359300      1.53612558     -0.22740925
H       5.82305420      2.04391080      1.13029737
H       5.96359383     -0.81634453      0.02339693
H       5.01834802     -0.32796443      1.41251499
H       3.66285534     -0.57454252     -0.62163590
H       3.72663227      1.00463694     -2.48631046
H       5.12620554      1.82744537     -1.81780096
H       5.08152971     -1.11891818     -2.67600075
H       6.51480549     -0.20379829     -2.16060017
H       5.68159624      0.22675777     -3.65732802
H       3.02030374      1.07445183      1.21965177
H       3.73625265      2.36012110      0.25461068
H      -3.21954539     -0.07109213      2.33515029
H      -4.06410088      1.02295009      1.22020641
H      -5.66387068     -0.56316912      2.13353005
H      -3.97572069     -2.29339524      2.75998368
H      -3.84838827     -2.80349929      1.08179504
H      -5.32967813     -4.26380144      2.47885404
H      -6.19228410     -3.58374881      1.10094649
H      -6.43501968     -2.90240682      2.72350493
H      -6.62556961     -1.57654686      0.13127650
H      -5.08795390     -1.51179693     -0.72424564
H      -6.58550105      0.97557850      0.26007783
H      -5.17218108      0.94390983     -0.80054602
H      -7.93614346     -0.19392720     -1.45960425
H      -6.52648217     -0.34924554     -2.50658527
H      -7.96204005      1.56053058     -3.20037859
H      -6.36925331      2.13886372     -2.68575007
H      -7.76564301      2.30900940     -1.60352669
