39
CN(C)c1ccc2nc3ccc(N(C)C)cc3[s+]c2c1.[Cl-]
C      -5.48299895      1.26020683      0.60130961
N      -5.13881448      0.13227099     -0.26395252
C      -6.20411501     -0.84697334     -0.47647942
C      -3.80656394     -0.28379910     -0.34353212
C      -3.43668031     -1.50277183     -0.92676332
C      -2.09496732     -1.91361709     -1.02125739
C      -1.05036669     -1.14206297     -0.55644911
N       0.19073335     -1.64601861     -0.70150028
C       1.29788587     -0.99401327     -0.29598476
C       2.50540308     -1.62842716     -0.50081200
C       3.73288737     -1.05348671     -0.12578859
C       3.81508661      0.21024648      0.47345168
N       5.03366443      0.77516466      0.86110534
C       6.27778971      0.21116028      0.33860682
C       5.08263227      2.19494056      1.20927140
C       2.58578815      0.84759378      0.69698272
C       1.35595917      0.26838440      0.31956578
S      -0.13912899      1.20068366      0.65433514
C      -1.39784872      0.09312668      0.01755929
C      -2.74286642      0.50798713      0.11360525
Cl      0.00000000      0.00000000      0.00000000
H      -4.98684976      2.17899656      0.27074102
H      -5.21746437      1.05179523      1.64361514
H      -6.55766781      1.47240053      0.57012480
H      -7.19364823     -0.38618757     -0.37940316
H      -6.16516331     -1.26158078     -1.48947564
H      -6.14429577     -1.65871075      0.25691162
H      -4.18109944     -2.18019057     -1.33437007
H      -1.87380956     -2.87461061     -1.48159514
H       2.50956807     -2.61195997     -0.96661899
H       4.62404215     -1.64239615     -0.32130863
H       6.40730389     -0.82809862      0.65914580
H       7.15115799      0.75286669      0.71900772
H       6.30567579      0.26602778     -0.75527162
H       6.09715758      2.50177440      1.48766574
H       4.76903478      2.81818170      0.36453973
H       4.45496075      2.41115333      2.08041721
H       2.55308757      1.82047513      1.17799835
H      -2.93546948      1.47946832      0.55865791
