27
Cc1ccc2cc3ccccc3cc2c1
C      -4.45328828      0.91243096     -0.04254906
C      -3.09918595      0.26824895     -0.07493062
C      -2.96790681     -1.09266345     -0.36083149
C      -1.70347785     -1.68311390     -0.42123598
C      -0.54327137     -0.92273848     -0.20779308
C       0.73458393     -1.50379093     -0.26568128
C       1.89550816     -0.74120065     -0.05591467
C       3.17376133     -1.32105394     -0.11340956
C       4.31804670     -0.55007186      0.09690624
C       4.19943482      0.80961411      0.36717034
C       2.93635311      1.40040502      0.42755558
C       1.77516471      0.63797836      0.21823052
C       0.49698636      1.21817893      0.27583282
C      -0.66426103      0.45519644      0.06715493
C      -1.94362379      1.03557189      0.12488774
H      -4.71243376      1.28865738     -1.03693793
H      -4.47215842      1.74545702      0.66802654
H      -5.21927465      0.19749129      0.27583009
H      -3.84894984     -1.70528367     -0.53805920
H      -1.63134816     -2.74607042     -0.64031916
H       0.82697272     -2.56718271     -0.47806115
H       3.28683884     -2.38226472     -0.32343323
H       5.30050943     -1.01228668      0.04939226
H       5.08903370      1.41195726      0.53127341
H       2.86403893      2.46467104      0.64009340
H       0.40426405      2.28172117      0.48738488
H      -2.04231687      2.10014160      0.32941770
