42
O=C1C(O)C2CC3N1CCC31c3ccccc3N3C(=O)C=CC2C31
O      -3.96307837      1.23280140     -0.52485997
C      -3.05018187      0.68873366      0.09711687
C      -3.09803171     -0.82615210      0.36989209
O      -3.77318137     -1.09762777      1.59241004
C      -1.68227494     -1.43789052      0.39940344
C      -0.90267766     -0.70515546      1.48494927
C      -0.72567368      0.73252863      1.03604608
N      -1.95584962      1.38798375      0.59967370
C      -1.56804811      2.59837667     -0.09464844
C      -0.39586698      2.12109605     -0.95731991
C       0.18784571      0.89946398     -0.19772388
C       1.64165513      1.03146840      0.19458494
C       2.27789352      2.10339443      0.80726047
C       3.62574061      1.97203862      1.14717552
C       4.31510501      0.77887683      0.88551845
C       3.66871105     -0.29873264      0.27477950
C       2.33797765     -0.15318822     -0.07298376
N       1.48413313     -1.07985434     -0.68681184
C       1.79009026     -2.36351423     -1.07322072
O       2.87963498     -2.91855941     -0.99093066
C       0.62996528     -3.13708651     -1.59875377
C      -0.63246710     -2.68700051     -1.53030283
C      -0.99929026     -1.32115875     -0.99600469
C       0.23533588     -0.39220796     -1.06231244
H      -3.67430222     -1.29764583     -0.43531924
H      -4.64532069     -0.66531389      1.52652456
H      -1.77564878     -2.48850836      0.70528212
H       0.06206810     -1.18796113      1.67400639
H      -1.44505767     -0.73464632      2.43778668
H      -0.34651962      1.32312508      1.88109343
H      -1.23144043      3.32707493      0.65122856
H      -2.37055555      3.03991246     -0.69157573
H      -0.78232535      1.81467620     -1.93717330
H       0.32035570      2.93047053     -1.13006604
H       1.74825885      3.02324398      1.03484681
H       4.14643031      2.79721098      1.62808969
H       5.36315782      0.68869350      1.16204152
H       4.21355106     -1.21638640      0.07936550
H       0.86619445     -4.12465189     -1.97952831
H      -1.44040329     -3.32552420     -1.88039408
H      -1.72724631     -0.91142487     -1.71011143
H       0.39133704     -0.12097875     -2.11903458
