8
ClC(Br)CBr
Cl     -1.87777602     -0.92408855     -0.69222435
C      -0.69566418      0.01974279      0.24883012
Br     -1.19950759      1.90354910      0.11800380
C       0.70193825     -0.20521043     -0.29244970
Br      2.05522104      0.42466346      0.97130369
H      -0.79862389     -0.26025793      1.30103075
H       0.89258686      0.31178693     -1.23771040
H       0.92182553     -1.27018537     -0.41678391
