49
CC(C)(c1ccc(OCC2CO2)cc1)c1ccc(OCC2CO2)cc1
C       0.29179663      2.47523220     -2.62722183
C       0.15665902      0.95751890     -2.33520194
C      -0.13693735      0.28458035     -3.70193728
C      -1.03537419      0.60613236     -1.41209029
C      -1.19783010     -0.71643071     -0.95740227
C      -2.26424416     -1.07183012     -0.12675317
C      -3.20239055     -0.12176806      0.27151442
O      -4.19281629     -0.60001075      1.08325589
C      -5.18778588      0.33004734      1.50991287
C      -6.14829156     -0.39737622      2.39256684
C      -7.34128110     -1.11738204      1.82407577
O      -7.46309826      0.17080421      2.44912608
C      -3.06195651      1.19102780     -0.17125349
C      -1.99157409      1.54981205     -1.00407883
C       1.49770580      0.51624032     -1.70097758
C       2.43185280     -0.28666183     -2.37083925
C       3.63515622     -0.65375300     -1.75690913
C       3.94336619     -0.23149493     -0.46348265
O       5.14778717     -0.67429922      0.00420456
C       5.57195404     -0.27846990      1.31053735
C       5.02515434     -1.21579606      2.33791063
C       5.73330842     -2.50054492      2.67395300
O       5.82487461     -1.34383647      3.52090862
C       3.02990811      0.56759408      0.21575496
C       1.82575595      0.93797801     -0.39706638
H      -0.58275348      2.86395326     -3.16233872
H       1.16846469      2.68002633     -3.25478125
H       0.40758638      3.06609987     -1.71076238
H      -1.11215040      0.59869902     -4.09516761
H       0.61349580      0.55320827     -4.45508353
H      -0.15621107     -0.80934648     -3.63115685
H      -0.48404343     -1.48801134     -1.24190518
H      -2.35988469     -2.10064110      0.21147215
H      -4.72677527      1.13854000      2.08963812
H      -5.70968917      0.74853973      0.64023397
H      -5.70352582     -0.75695131      3.31025638
H      -7.45677568     -1.16943948      0.74845468
H      -7.72718710     -1.97326610      2.36352040
H      -3.76546390      1.96830155      0.10877469
H      -1.93234285      2.58704309     -1.32206500
H       2.25393314     -0.64616649     -3.38000110
H       4.34135592     -1.27864551     -2.29912677
H       6.66754572     -0.32974298      1.30431363
H       5.32884091      0.76656393      1.53237667
H       3.95210565     -1.16776377      2.45319156
H       5.13964579     -3.33429260      3.02699141
H       6.61165307     -2.77837110      2.10518411
H       3.20807328      0.92270027      1.22450704
H       1.13240322      1.56164952      0.16528215
