33
C=C[Si](OC(=C)C)(OC(=C)C)OC(=C)C
C       0.06390281     -3.17127216     -1.01913222
C      -0.02331886     -1.85759317     -1.26868412
Si      0.02739081     -0.48493444     -0.00036678
O       1.47501936     -0.54216026      0.83483148
C       2.75034631     -0.49289237      0.28009223
C       3.76037570     -0.98687846      1.00868821
C       2.99633447      0.17103337     -1.04734543
O      -0.12916534      0.98604225     -0.77592517
C      -0.13972469      2.24611461     -0.18279737
C      -0.27910271      3.30455406     -0.99246351
C      -0.00022861      2.41789391      1.30607103
O      -1.21409008     -0.68828434      1.10109897
C      -2.57212028     -0.77582564      0.80992038
C      -3.36370960     -1.35123743      1.72497813
C      -3.14076533     -0.17038951     -0.44444891
H       0.02399590     -3.89306758     -1.82943764
H       0.17641985     -3.56204895     -0.01084177
H      -0.13511678     -1.49220748     -2.28230429
H       4.78711222     -0.95877009      0.66088687
H       3.57376112     -1.43489352      1.97964537
H       4.06637613      0.21473068     -1.28098803
H       2.63320420      1.20294947     -1.03901362
H       2.51671349     -0.37582468     -1.86404213
H      -0.29713729      4.31982645     -0.61124517
H      -0.37900855      3.17258916     -2.06505901
H       0.95613762      2.02288629      1.66126848
H      -0.81905954      1.92552429      1.83889363
H      -0.02971954      3.47591298      1.59124940
H      -4.43627837     -1.43242561      1.58733663
H      -2.94527468     -1.75724557      2.64059890
H      -2.77592553     -0.68394832     -1.33842144
H      -2.89289669      0.89308367     -0.51003231
H      -4.23444751     -0.24124161     -0.46301080
