38
CCN(CC)CCNC(=O)c1ccc(N)cc1
C       5.00236531     -1.21659640      0.94408351
C       3.54117383     -1.10306323      0.51788505
N       3.00782995      0.26886141      0.58233172
C       3.75307130      1.23869458     -0.23967006
C       3.81103620      0.96097407     -1.73943628
C       1.56420846      0.29898653      0.26137920
C       0.67537090     -0.32200504      1.35797642
N      -0.73850704     -0.06504384      1.13736585
C      -1.44811251     -0.75686649      0.17794793
O      -0.95941170     -1.64212481     -0.51472502
C      -2.86454387     -0.34472466     -0.02169108
C      -3.43742935     -0.52124574     -1.28514806
C      -4.76348159     -0.14200250     -1.51520773
C      -5.55008879      0.36591052     -0.47860767
N      -6.83390296      0.85412373     -0.74257607
C      -4.96008910      0.57781131      0.77057561
C      -3.63288957      0.20403029      1.01042762
H       5.16496801     -0.75639133      1.92431607
H       5.28651802     -2.27165227      1.01916872
H       5.67708458     -0.74859070      0.22113611
H       3.41811031     -1.53367236     -0.48301793
H       2.97569246     -1.74287765      1.20417199
H       3.31838148      2.23543875     -0.08787099
H       4.77583920      1.33223576      0.14369157
H       4.32124998      0.01879388     -1.95967421
H       4.36868485      1.75957451     -2.24032158
H       2.81262199      0.92940779     -2.18553597
H       1.24460629      1.34412815      0.15069161
H       1.36476316     -0.18674972     -0.70194475
H       0.92219444      0.10395044      2.33649447
H       0.81552122     -1.40658851      1.40903533
H      -1.12049348      0.79180460      1.51309891
H      -2.84870109     -0.93970556     -2.09897717
H      -5.17699563     -0.25315605     -2.51425942
H      -7.43532027      0.89954708      0.07403029
H      -7.29075648      0.40448032     -1.53030371
H      -5.53526314      1.02960967      1.57491475
H      -3.22530539      0.33469348      2.00824496
