15
Cn1ccc(=O)[nH]c1=O
C       2.15414166      0.08533063      0.06732096
N       0.70011927      0.04302661      0.02051276
C       0.07080901     -1.18151553      0.10810415
C      -1.25809002     -1.29657775      0.07215473
C      -2.07207650     -0.07876715     -0.06505220
O      -3.29515675     -0.13820170     -0.10229447
N      -1.37871872      1.09281200     -0.14567865
C      -0.01439633      1.22903707     -0.11039024
O       0.49530181      2.34406111     -0.19235281
H       2.55453645     -0.50290161     -0.76456390
H       2.49258855     -0.34371290      1.01586749
H       2.53539318      1.10695871     -0.01075732
H       0.70550933     -2.05749423      0.20850945
H      -1.77637594     -2.24330077      0.13876872
H      -1.91358500      1.94124552     -0.24014867
