60
C[Si]1(C)O[Si](C)(C)O[Si](C)(C)O[Si](C)(C)O[Si](C)(C)O[Si](C)(C)O1
C       0.64623081      1.95705111     -2.21917593
Si      0.11643073      2.84700374     -0.65480571
C       0.75932211      4.61031962     -0.75387300
O      -1.55179027      2.86436659     -0.54464034
Si     -2.77498461      1.82917908     -0.07117459
C      -4.37314757      2.28428594     -0.94542171
C      -3.06628522      1.99776202      1.77689076
O      -2.31763896      0.28323516     -0.47624170
Si     -2.57022956     -1.31133676     -0.08587097
C      -2.31932018     -1.61151833      1.75202406
C      -4.33714804     -1.80608216     -0.50136235
O      -1.50957943     -2.23205513     -0.98157484
Si      0.06468797     -2.77704885     -0.96680184
C       0.22578366     -4.22714480      0.22064310
C       0.53038700     -3.39219512     -2.68013029
O       1.05987762     -1.52937717     -0.49239003
Si      2.66892445     -1.14131493     -0.31466320
C       3.56862577     -1.27669007     -1.95993661
C       3.50707279     -2.31049838      0.89514912
O       2.77553835      0.42672748      0.23899153
Si      2.09672826      1.46115308      1.35251583
C       3.31281172      2.83829962      1.75521262
C       1.71070614      0.56583408      2.95917122
O       0.70120863      2.09896420      0.71261166
H       0.30736086      0.91723048     -2.20987652
H       1.73500050      1.96254718     -2.32342248
H       0.21831525      2.44416596     -3.09936197
H       1.84858274      4.62045643     -0.85101560
H       0.48775821      5.16550779      0.14883524
H       0.33184929      5.12772312     -1.61781636
H      -4.65931950      3.31450067     -0.71397570
H      -5.18739083      1.62323582     -0.63311666
H      -4.25546660      2.19575570     -2.02951291
H      -3.30249151      3.03462397      2.03428885
H      -3.90173566      1.36865215      2.09765864
H      -2.17480329      1.70120505      2.33788890
H      -2.40719197     -2.67736145      1.98262544
H      -1.32849040     -1.27199680      2.06782614
H      -3.06931625     -1.07504370      2.33974662
H      -4.49920435     -2.86627065     -0.28540715
H      -4.54386076     -1.63476467     -1.56187078
H      -5.05038325     -1.22203937      0.08758586
H       0.01649829     -3.90916161      1.24638373
H       1.23703527     -4.64338256      0.18958842
H      -0.47973782     -5.02006570     -0.04458644
H       0.51167296     -2.57084123     -3.40238125
H       1.53365413     -3.82755682     -2.67842170
H      -0.17329009     -4.16009297     -3.01513472
H       3.57942105     -2.31091418     -2.31505793
H       4.60445797     -0.93840707     -1.86073608
H       3.07679178     -0.65670237     -2.71566817
H       4.55020538     -2.01763393      1.04927317
H       2.99860310     -2.29413502      1.86396121
H       3.49276261     -3.33661655      0.51569395
H       3.59054251      3.38499414      0.84942127
H       4.22377391      2.42724949      2.20015567
H       2.87223698      3.54583145      2.46364700
H       1.28093398      1.25765735      3.68981849
H       0.99176754     -0.24069345      2.78917017
H       2.61924575      0.13342330      3.38864684
