12
C1O[C@H]1[C@H]1CO1
C       1.64209219      0.44410832     -0.34607135
O       1.70032066     -0.28363810      0.88309552
C       0.71097173     -0.71026801     -0.07142545
C      -0.71747233     -0.57668790      0.40954581
C      -1.63695798      0.57235402      0.07901726
O      -1.70511251     -0.66498630     -0.63386447
H       2.44507856      0.29360381     -1.05671489
H       1.25437561      1.45346393     -0.31261608
H       0.92732639     -1.63587882     -0.59882425
H      -0.94125392     -1.12145488      1.32325526
H      -2.43956351      0.79817426      0.76987360
H      -1.23980488      1.43120969     -0.44527096
