49
CCCCCCCCOC(=O)[C@@H](C)Oc1ccc(Cl)cc1C
C      -7.44100744      0.69269953      0.60160536
C      -6.28464571      0.27159742     -0.29112024
C      -4.94460599      0.75500254      0.26289785
C      -3.78353147      0.32942454     -0.63861297
C      -2.44327992      0.81116202     -0.07964058
C      -1.25627695      0.50566250     -0.99777832
C      -1.01362966     -0.97806407     -1.29775054
C      -0.79209704     -1.84839028     -0.06139506
O       0.23866051     -1.30913246      0.77934224
C       1.52152177     -1.63138240      0.43113335
O       1.82497523     -2.33797299     -0.52089973
C       2.50020021     -0.95497396      1.39493924
C       2.38860840     -1.59891534      2.77170290
O       3.84989717     -1.13566431      0.94365175
C       4.43659982      0.03543622      0.54419882
C       4.73666690      1.02492249      1.48582064
C       5.35730948      2.20635661      1.08030113
C       5.68639906      2.38594964     -0.26115406
Cl      6.44292744      3.84714516     -0.76506657
C       5.41314932      1.38838324     -1.19810035
C       4.80313795      0.18888595     -0.79978502
C       4.50658597     -0.87138686     -1.82136191
H      -7.33215249      0.27518491      1.60766915
H      -8.38920865      0.33663270      0.18683335
H      -7.49498044      1.78281800      0.68563227
H      -6.44033609      0.67838172     -1.29709159
H      -6.27866533     -0.82098706     -0.38017057
H      -4.79517105      0.34820162      1.27052084
H      -4.95805764      1.84794354      0.35423450
H      -3.78247587     -0.76260565     -0.72867136
H      -3.93078010      0.73936671     -1.64504020
H      -2.48661359      1.89784829      0.06686179
H      -2.27441534      0.37474012      0.91150238
H      -1.40002202      1.03088845     -1.95041591
H      -0.35177250      0.93478996     -0.54907177
H      -1.84427103     -1.38722254     -1.88336481
H      -0.12571984     -1.03889191     -1.93898233
H      -0.56062603     -2.88144510     -0.34768134
H      -1.70500970     -1.89554445      0.54114061
H       2.22085928      0.10605109      1.45073004
H       2.61799940     -2.66950993      2.72111183
H       1.38360562     -1.48686387      3.19027976
H       3.10690091     -1.15173849      3.46677402
H       4.49951238      0.87681890      2.53534341
H       5.58555584      2.97639681      1.81195554
H       5.68242129      1.54135570     -2.24069964
H       3.46994839     -0.78435451     -2.16014470
H       4.67199168     -1.87252079     -1.41067526
H       5.16391788     -0.77247943     -2.69193930
