20
CS(=O)(=O)Nc1nnc(S(N)(=O)=O)s1
C      -4.19397863     -0.27539188      0.09581793
S      -2.56323877     -0.91750448     -0.20147060
O      -2.63502825     -1.79994446     -1.34452107
O      -2.01500918     -1.34526085      1.06531452
N      -1.78110489      0.48797543     -0.72838045
C      -0.34218864      0.38429038     -0.52390435
N       0.44549455      0.11748974     -1.54137441
N       1.77792238      0.12432564     -1.16997733
C       1.90872473      0.44079140      0.10366005
S       3.44054997      0.58476422      0.95768769
N       4.66298700      0.09066521     -0.09910019
O       3.62706535      1.99846405      1.19160815
O       3.40059014     -0.39276370      2.02092908
S       0.45873815      0.76715082      0.93694716
H      -4.58571490      0.14512333     -0.83224291
H      -4.82718707     -1.10237123      0.42450418
H      -4.13859810      0.48334927      0.87866108
H      -1.93227093      0.55815605     -1.73776211
H       4.68316439     -0.92568035     -0.18520214
H       4.60908269      0.57637141     -0.99467676
