33
CCCSP(=S)(OCC)Oc1ccc(Cl)cc1Cl
C       4.45235129     -1.20008055      0.54906559
C       3.75068630     -0.77831104      1.83309898
C       2.54523734      0.13196603      1.60655936
S       1.16880726     -0.72491611      0.79159954
P      -0.28245500      0.79428863      0.55730693
S      -1.07957554      1.57536064      2.16378203
O       0.47393685      1.92002622     -0.34813106
C      -0.26538896      3.02232394     -0.85130395
C       0.46907330      3.58357837     -2.05170914
O      -1.36259086      0.27184344     -0.52934443
C      -2.24649270     -0.76441236     -0.40992431
C      -2.34076408     -1.57998370      0.71786955
C      -3.27472303     -2.62123790      0.75268818
C      -4.11277699     -2.84740291     -0.33743410
Cl     -5.25623265     -4.13081504     -0.28336859
C      -4.03001273     -2.04183738     -1.46792457
C      -3.09803587     -1.00334564     -1.50079758
Cl     -3.02324493     -0.01949922     -2.92134299
H       4.74902343     -0.32666554     -0.04041687
H       5.35679191     -1.76948447      0.78664976
H       3.81512621     -1.83605882     -0.07223281
H       3.45921163     -1.66784326      2.40449675
H       4.47547889     -0.23582908      2.45267262
H       2.18838460      0.50350035      2.57224274
H       2.83197412      0.99879374      1.00257907
H      -0.34156615      3.78577498     -0.07139201
H      -1.27341249      2.71402117     -1.14427081
H       1.48319916      3.89056808     -1.77532341
H       0.56826383      2.82207153     -2.83237735
H      -0.06070438      4.44618694     -2.46534238
H      -1.71194179     -1.44153707      1.59148786
H      -3.34268591     -3.25159504      1.63691656
H      -4.68494208     -2.21944893     -2.31637915
