23
CCCCC(=O)OCC
C      -4.13741254     -0.36687683      0.10544439
C      -2.76832283     -0.81460555     -0.38098684
C      -1.65698930      0.06948462      0.18298717
C      -0.28308246     -0.38328595     -0.30781741
C       0.82643077      0.48222310      0.24206541
O       0.67981306      1.43707089      0.99118082
O       2.02483722      0.03217354     -0.22840527
C       3.15495950      0.78319835      0.23133900
C       4.40585353      0.17153876     -0.36879002
H      -4.91717498     -1.01286037     -0.30999118
H      -4.34710549      0.66164467     -0.20521911
H      -4.20133023     -0.41619313      1.19714995
H      -2.60350523     -1.85628885     -0.08193323
H      -2.74847965     -0.78436524     -1.47661122
H      -1.68431424      0.04349883      1.27959714
H      -1.82889011      1.11248203     -0.11125887
H      -0.09909801     -1.41610188      0.00858792
H      -0.24569767     -0.33215194     -1.40173648
H       3.06187441      1.82621910     -0.09137799
H       3.20908388      0.73776581      1.32482434
H       4.35753220      0.19032312     -1.46259851
H       4.50204162     -0.87820479     -0.07232677
H       5.29897655      0.71331169     -0.04523146
