25
O=[N+](O)OCCCCCO[N+](=O)O
O      -4.32508081     -0.31525097      0.23623235
N      -3.18988441     -0.95411474     -0.31719105
O      -3.36760145     -2.24432318     -0.84765032
O      -1.90274393     -0.34580955     -0.34645651
C      -1.94747238      0.93124268      0.27576208
C      -0.56070991      1.57142145      0.23588624
C       0.44213319      0.96955484      1.22847518
C       0.83194602     -0.49639216      1.00588842
C       1.44703431     -0.79244878     -0.36088291
O       2.59615551      0.02631871     -0.54258118
N       3.19196117     -0.23355773     -1.80871594
O       2.69536637     -1.21155869     -2.70338351
O       4.32500103      0.49534152     -2.21395071
H      -4.31904775     -2.32959986     -0.67282222
H      -2.28996866      0.83768279      1.31287254
H      -2.64438021      1.57224230     -0.27692362
H      -0.15325670      1.52086217     -0.77989570
H      -0.67052985      2.63459661      0.48304937
H       0.03660115      1.06735961      2.24348854
H       1.35107026      1.58401419      1.20838879
H       1.56842311     -0.75528118      1.77768642
H      -0.03079170     -1.14986249      1.17158889
H       1.74149681     -1.84805307     -0.39326065
H       0.72183553     -0.60426832     -1.15938322
H       4.45244330      0.06988384     -3.07750220
