57
CN(C)[C@@H]1C(O)=C(C(N)=O)C(=O)[C@@]2(O)C(=O)C3=C(O)c4c(O)cccc4[C@@](C)(O)[C@H]3[C@H](O)[C@@H]12
C       1.78587869     -3.14179141     -0.72165934
N       1.82184460     -2.33649814      0.49974835
C       2.93304475     -2.75233898      1.35373757
C       1.73256351     -0.88325882      0.23924340
C       3.05259906     -0.17962726     -0.11467876
O       3.77609732     -0.83589017     -1.10755057
C       3.48268060      0.97482052      0.44541615
C       4.81197731      1.53558164      0.06309426
N       5.20547715      2.67842887      0.67709909
O       5.53010999      0.98837227     -0.77067348
C       2.57810079      1.66826481      1.40355539
O       2.99354093      2.55270731      2.15813937
C       1.10180439      1.28587157      1.39363240
O       0.46511444      1.84921165      2.55383899
C       0.38434094      1.81893037      0.16481268
O       0.85924901      2.73057859     -0.51664041
C      -0.92820195      1.20520070     -0.20162858
C      -1.56586816      1.64196097     -1.30648406
O      -1.08065258      2.63550665     -2.14063596
C      -2.89236321      1.10058707     -1.68576018
C      -3.72541108      1.73991249     -2.62948247
O      -3.37451099      2.90185536     -3.26696540
C      -4.97029702      1.22621946     -2.97935040
C      -5.40980057      0.04396924     -2.40471947
C      -4.60366331     -0.61768024     -1.47879480
C      -3.34679585     -0.10098234     -1.09314916
C      -2.43729840     -0.85024526     -0.11295472
C      -3.23203247     -1.75393143      0.85424881
O      -1.59356457     -1.70953957     -0.89513259
C      -1.51597522      0.12919603      0.69558289
C      -0.48086490     -0.65156187      1.57284596
O      -0.87411897     -0.45661188      2.95054678
C       0.99864626     -0.22928876      1.44813935
H       1.67181289     -4.20244933     -0.46986711
H       0.92000695     -2.88180266     -1.33943560
H       2.68810105     -3.04012185     -1.33137233
H       2.95851412     -2.18733661      2.29047085
H       2.81479036     -3.80479942      1.63688140
H       3.90720011     -2.64883454      0.86386036
H       1.08619600     -0.74238734     -0.63777942
H       4.62485004     -0.36325624     -1.27266953
H       6.11770090      3.05912057      0.46408510
H       4.66288717      3.10797407      1.42385757
H       0.88037751      2.72869734      2.69101801
H      -0.21191863      2.94003112     -1.79035427
H      -2.44551045      3.08396509     -3.01482553
H      -5.58657475      1.74725827     -3.70656582
H      -6.37683603     -0.36791429     -2.68218225
H      -4.98418119     -1.55076307     -1.07122209
H      -3.73282702     -2.57087318      0.32247491
H      -3.98209514     -1.18300088      1.41233527
H      -2.58967961     -2.26170240      1.57914373
H      -2.06612611     -1.92719772     -1.71857762
H      -2.18058697      0.67975787      1.38130619
H      -0.55028231     -1.73019587      1.41509359
H      -0.60456019      0.45056620      3.20911384
H       1.49709080     -0.54266455      2.37811877
