23
Clc1ccc(Cl)c(Oc2ccc(Cl)c(Cl)c2Cl)c1
Cl      2.86297030     -2.35881311      2.06825928
C       2.60327941     -0.98972073      1.06001080
C       3.63613752     -0.52648838      0.24480184
C       3.43248955      0.59186927     -0.56741801
C       2.19419745      1.23764670     -0.56635260
Cl      1.97757115      2.61129216     -1.58680683
C       1.15395439      0.75539516      0.23736263
O      -0.04979462      1.42802385      0.25490935
C      -1.17009913      0.67855377     -0.04196280
C      -1.27005637      0.03016304     -1.27652641
C      -2.42168754     -0.68900575     -1.58743288
C      -3.48048116     -0.75058019     -0.67517406
Cl     -4.86896535     -1.66949777     -1.14715056
C      -3.39804578     -0.08427392      0.55886915
Cl     -4.72099672     -0.16158701      1.68272264
C      -2.23607254      0.64169303      0.87173586
Cl     -2.07353471      1.48531679      2.38088766
C       1.36423726     -0.35128350      1.06802332
H       4.60237292     -1.02550388      0.24308562
H       4.24301101      0.95535072     -1.19467017
H      -0.46355111      0.09174793     -2.00352964
H      -2.49298508     -1.19508240     -2.54837185
H       0.57604916     -0.70521578      1.72641819
