16
C1CNCCN1
C       1.31097948      0.41651368     -0.38236000
C       0.95861448     -1.05508348     -0.07874511
N      -0.15745970     -1.18905066      0.87163633
C      -1.31097453     -0.41651129      0.38237221
C      -0.95861637      1.05508069      0.07873247
N       0.15746873      1.18905000     -0.87163906
H       1.71434265      0.89276007      0.52029893
H       2.10016779      0.44640511     -1.14146032
H       1.83841439     -1.55456484      0.34127369
H       0.70872339     -1.57451241     -1.01258250
H      -0.41978538     -2.17100481      0.94033839
H      -1.71436058     -0.89277068     -0.52026835
H      -2.10014747     -0.44639225      1.14148933
H      -1.83841833      1.55454842     -0.34130250
H      -0.70873832      1.57452869      1.01256052
H       0.41978979      2.17100376     -0.94034405
