25
CC(C)(C)c1cccc(O)c1
C      -2.02323840      1.39221348      0.23425599
C      -1.30498948      0.03369488      0.07001587
C      -1.70880352     -0.84441822      1.27410363
C      -1.83703645     -0.60961981     -1.22884842
C       0.22778874      0.14538528      0.00196400
C       0.90612228      1.37403922      0.08246709
C       2.30343261      1.44016526      0.01708975
C       3.05752120      0.27965822     -0.13040574
C       2.40367564     -0.94129202     -0.21144557
O       3.09438462     -2.10864247     -0.35632937
C       1.01389503     -1.01456305     -0.14712133
H      -3.11119686      1.26120848      0.27771774
H      -1.72295243      1.89822901      1.15921576
H      -1.81342585      2.06384791     -0.60637342
H      -1.31958603     -0.43082600      2.21204851
H      -2.79917054     -0.91165777      1.36627490
H      -1.33152271     -1.86905181      1.18507014
H      -1.46244897     -1.62936327     -1.37010129
H      -2.93172307     -0.66893640     -1.22095408
H      -1.54091151     -0.02555280     -2.10831850
H       0.36811746      2.31098939      0.19792146
H       2.79995817      2.40515911      0.08217931
H       4.13893156      0.34790984     -0.17939998
H       4.04281653     -1.90290585     -0.38562188
H       0.55036197     -1.99567060     -0.21540459
