25
Nc1c2ccccc2nc2ccc(Cl)cc12
N      -0.02818800      2.35815030      0.92584852
C      -0.02110738      1.00826658      0.47488586
C      -1.24895242      0.34070677      0.20590307
C      -2.53580402      0.90828885      0.39901424
C      -3.69947758      0.18276811      0.14322729
C      -3.60227407     -1.12195685     -0.31267410
C      -2.34243381     -1.68465682     -0.52012427
C      -1.17048765     -0.97912950     -0.27923346
N      -0.01063600     -1.59777448     -0.53371596
C       1.13880103     -0.93394262     -0.37488637
C       2.31295933     -1.59428140     -0.71420217
C       3.56295080     -0.98190818     -0.60992799
C       3.63899489      0.32577618     -0.15960771
Cl      5.16708944      1.10435689     -0.03595857
C       2.47807025      1.00993213      0.19401247
C       1.20500878      0.38918463      0.10529765
H      -0.84630924      2.58879608      1.47960701
H       0.81279648      2.61922726      1.42938052
H      -2.64658768      1.93420120      0.73765010
H      -4.67387641      0.63925164      0.29640496
H      -4.49771793     -1.70237578     -0.51764699
H      -2.27167740     -2.70529353     -0.89038647
H       2.25122026     -2.61754503     -1.07965613
H       4.45855467     -1.52960429     -0.88905239
H       2.56908368      2.03956187      0.52584089
