28
c1ccc(-c2cnc(-c3ccccc3)o2)cc1
C       4.95391100      0.09665859      0.99375774
C       3.86249239      0.69900575      1.61354268
C       2.56870932      0.45779125      1.14222325
C       2.34610216     -0.38852556      0.04503156
C       1.00092334     -0.64485307     -0.45198274
C       0.44911419     -1.39366001     -1.46853151
N      -0.91688686     -1.26098358     -1.47710822
C      -1.16095775     -0.44035141     -0.47246816
C      -2.44105780      0.07236414      0.00984219
C      -3.62806992     -0.31429934     -0.63146312
C      -4.86729050      0.15952680     -0.19298544
C      -4.93547530      1.02756299      0.89426955
C      -3.76713773      1.42191686      1.54288579
C      -2.52769224      0.94741044      1.10357196
O      -0.03777056     -0.02615535      0.19527427
C       3.45817196     -0.98687712     -0.56704499
C       4.75271870     -0.74611269     -0.09619189
H       5.96007905      0.28394258      1.35989794
H       4.01483761      1.35767192      2.46477313
H       1.73324330      0.94091996      1.64450557
H       0.95631900     -2.01735741     -2.19062350
H      -3.58933660     -0.99246624     -1.48277757
H      -5.77660484     -0.15037897     -0.70156285
H      -5.89913138      1.39664059      1.23602058
H      -3.81865280      2.09928757      2.39155928
H      -1.62895482      1.26889157      1.62540908
H       3.33507651     -1.64984429     -1.41992585
H       5.60332052     -1.21772596     -0.58197298
