29
Nc1ccc(S(=O)(=O)Nc2ccc(Cl)cc2)c(Cl)c1
N       4.16377696      2.17416478     -0.31804489
C       3.28767548      1.15299317      0.06116555
C       2.42731815      1.33341673      1.14431936
C       1.46283276      0.37229180      1.45552939
C       1.31911449     -0.76593672      0.65030922
S       0.08207069     -1.95178436      1.09081466
O      -0.63706656     -1.45868084      2.24787930
O       0.71146734     -3.25400112      1.12812639
N      -0.96829852     -1.94506493     -0.23342659
C      -1.96230328     -0.93430633     -0.29692516
C      -1.65126417      0.31524891     -0.83363016
C      -2.61861107      1.32263311     -0.85454707
C      -3.88686122      1.07602428     -0.32994280
Cl     -5.07702131      2.31762391     -0.35411010
C      -4.19578891     -0.16924802      0.21614628
C      -3.22891003     -1.17724792      0.23577906
C       2.13488967     -0.93193103     -0.46867897
Cl      2.01392819     -2.25881094     -1.56745128
C       3.09973561      0.04178061     -0.76575694
H       4.94428593      1.86713340     -0.89147090
H       4.46552254      2.77167422      0.44635164
H       2.50160357      2.22629046      1.76126908
H       0.82098034      0.53033129      2.32073510
H      -1.22874486     -2.89476082     -0.49869553
H      -0.66869226      0.51232856     -1.25267657
H      -2.37723018      2.29344755     -1.27941760
H      -5.18057189     -0.35842011      0.63519142
H      -3.46728461     -2.13826663      0.68353000
H       3.71344714     -0.06892301     -1.65727992
