40
CN(C(=O)c1cc2c(s1)-c1ncccc1OCC2)c1ccccc1Cl
C      -3.90273285     -2.89818459     -0.41056745
N      -2.80437060     -1.93662469     -0.39365383
C      -1.52504995     -2.47689156     -0.12888218
O      -1.39533051     -3.67093544      0.15059367
C      -0.38089122     -1.57792695     -0.27115924
C      -0.18805122     -0.53026048     -1.14562498
C       1.07409034      0.13259289     -0.96871008
C       1.83255160     -0.45363660      0.04040533
S       0.98505327     -1.79807310      0.72101840
C       3.18228693     -0.10471074      0.55137387
N       3.56987598     -0.81621220      1.64730894
C       4.81201963     -0.62229842      2.13838352
C       5.71904738      0.26271500      1.59355527
C       5.31823920      1.00165970      0.48873058
C       4.03013331      0.84408693     -0.03279352
O       3.77066244      1.63749631     -1.11583255
C       2.46828527      2.22303135     -1.11107495
C       1.48010399      1.30619691     -1.81015599
C      -3.16315684     -0.60589921     -0.00275275
C      -2.74903867     -0.11184413      1.24529453
C      -3.10909211      1.17288663      1.65903786
C      -3.88724984      1.98074855      0.83405294
C      -4.30231583      1.50778742     -0.41035604
C      -3.94376945      0.22247063     -0.83099096
Cl     -4.40888892     -0.24655215     -2.43091566
H      -4.85016111     -2.44430022     -0.71010348
H      -4.01507942     -3.32911669      0.59048328
H      -3.66137655     -3.70461122     -1.11094337
H      -0.91977120     -0.24337925     -1.89261250
H       5.06499443     -1.22537199      3.00576960
H       6.71039566      0.37637030      2.01651558
H       6.00399706      1.71107019      0.03297501
H       2.15027489      2.51082877     -0.09965912
H       2.55195493      3.15161648     -1.68729841
H       0.58391590      1.88577752     -2.06361509
H       1.91013294      0.92831040     -2.74586260
H      -2.16322957     -0.72869636      1.92404831
H      -2.78496251      1.53833539      2.63112388
H      -4.16710857      2.98046201      1.15795121
H      -4.89638825      2.15108263     -1.05505703
