58
CCN(CC)CCCC(C)Nc1c2ccc(Cl)cc2nc2ccc(OC)cc12
C      -5.74533686     -0.79732369      0.62844894
C      -4.87651580     -0.46438970     -0.58115770
N      -3.52413889     -1.04945609     -0.59553028
C      -3.58450888     -2.51417993     -0.75089236
C      -2.27356636     -3.11264862     -1.24997837
C      -2.67701324     -0.64986596      0.54096331
C      -2.49205538      0.87043639      0.66417746
C      -1.50889022      1.27270761      1.77303679
C      -0.02459235      0.91751889      1.52437513
C       0.76269558      1.23583635      2.80195071
N       0.46322768      1.70029525      0.36347943
C       1.83660268      1.49153683      0.02085595
C       2.78017912      2.49143587      0.37779074
C       2.42445001      3.72496770      0.97361938
C       3.39094084      4.67091747      1.30789854
C       4.72375280      4.39249964      1.04503290
Cl      5.93393618      5.54658547      1.45096793
C       5.08694301      3.18607900      0.45023370
C       4.13657840      2.23453347      0.10826764
N       4.55808140      1.10281530     -0.47053454
C       3.66465579      0.17397040     -0.83650006
C       4.14722353     -0.97045508     -1.45473194
C       3.30342649     -1.99733567     -1.88883932
C       1.93383427     -1.88105086     -1.70742012
O       0.99082646     -2.79478615     -2.08230493
C       1.45317166     -3.96385592     -2.74777901
C       1.43097544     -0.73622588     -1.08461069
C       2.27932657      0.30558249     -0.62738764
H      -5.90693225     -1.87496538      0.72657971
H      -5.30826065     -0.42379139      1.55920925
H      -6.72813134     -0.32668153      0.51670320
H      -4.80640145      0.62489521     -0.68101777
H      -5.40830271     -0.77970524     -1.48863980
H      -3.88056394     -3.00403925      0.18485191
H      -4.34585760     -2.77050328     -1.49880291
H      -1.92191251     -2.59476320     -2.14883912
H      -2.41942670     -4.16710618     -1.50749659
H      -1.48726287     -3.06901669     -0.49077730
H      -1.68588393     -1.08953901      0.40595058
H      -3.06893959     -1.05151170      1.48329296
H      -2.18140985      1.29356322     -0.29710767
H      -3.45368881      1.33543383      0.91184823
H      -1.59294472      2.35873516      1.91710441
H      -1.84254891      0.81020677      2.71090642
H       0.06695738     -0.15545948      1.33098910
H       1.81397437      0.94517862      2.71382240
H       0.72394687      2.30356867      3.04205391
H       0.35054320      0.68639905      3.65559258
H      -0.08598119      1.45842562     -0.46274616
H       1.37748885      3.94814704      1.17172407
H       3.09521443      5.61118257      1.76459403
H       6.13329935      2.97783468      0.24178937
H       5.22043231     -1.06668863     -1.60862984
H       3.75406510     -2.86176932     -2.36428842
H       2.10822082     -4.55376666     -2.09827536
H       0.58047028     -4.57905841     -2.98777514
H       1.95223000     -3.71119152     -3.68900543
H       0.35339611     -0.66015814     -0.96704217
