14
C#CC(C)(C)O
C       2.05097598      0.89203083     -0.97258076
C       1.13708574      0.45778250     -0.32480317
C       0.02104254     -0.07828515      0.47575361
C      -0.96789327      1.02984482      0.82813612
C      -0.68081618     -1.21122095     -0.27097596
O       0.53781023     -0.60211702      1.69813167
H       2.86183299      1.28233629     -1.54359451
H      -0.47819870      1.82527627      1.40302185
H      -1.40937416      1.48172203     -0.06701034
H      -1.77785472      0.64553537      1.45884791
H      -1.48223682     -1.64362260      0.33907129
H       0.01640145     -2.02860987     -0.49162018
H      -1.11114430     -0.86875561     -1.21854481
H       1.28236920     -1.18191693      1.46377239
