10
[Al+3].[F-].[F-].[F-].[F-].[F-].[F-].[Na+].[Na+].[Na+]
Al      0.00000000      0.00000000      0.00000000
F       0.00000000      0.00000000      0.00000000
F       0.00000000      0.00000000      0.00000000
F       0.00000000      0.00000000      0.00000000
F       0.00000000      0.00000000      0.00000000
F       0.00000000      0.00000000      0.00000000
F       0.00000000      0.00000000      0.00000000
Na      0.00000000      0.00000000      0.00000000
Na      0.00000000      0.00000000      0.00000000
Na      0.00000000      0.00000000      0.00000000
