20
O=C1O[C@H]([C@@H](O)CO)C(O)=C1O
O      -2.58951728      0.41495514      1.97553148
C      -1.82449064     -0.03456932      1.14042759
O      -0.84022027     -0.95432051      1.35081899
C      -0.13734469     -1.19275555      0.11291101
C       1.37261208     -0.93580012      0.30511454
O       2.09056410     -1.20314609     -0.90705815
C       1.74613501      0.46340390      0.81531926
O       1.38606736      1.46889681     -0.12839638
C      -0.85245108     -0.32688663     -0.85876672
O      -0.50720922     -0.27668695     -2.18230528
C      -1.83411732      0.34854237     -0.27635074
O      -2.69842017      1.23021242     -0.85755977
H      -0.29036590     -2.24247253     -0.16669648
H       1.73761372     -1.65210747      1.05127675
H       1.75862628     -0.54682669     -1.55490034
H       1.25676549      0.68497367      1.76843420
H       2.83113984      0.52367643      0.95306106
H       1.77232504      2.30495176      0.18795397
H      -1.09935328      0.38369706     -2.59633268
H      -3.27835908      1.54226230     -0.13248230
