22
COc1ccc(C=O)cc1OC
C      -1.42674480      3.08578814     -0.42120767
O      -1.57065333      1.67709490     -0.31439802
C      -0.43482932      0.92904222     -0.12737463
C       0.85638016      1.46365161     -0.03496361
C       1.95688820      0.62462048      0.15616229
C       1.76456854     -0.75310421      0.25505679
C       2.93357278     -1.63270402      0.45706689
O       2.82483910     -2.84882046      0.55092107
C       0.48184043     -1.30198318      0.16479588
C      -0.62323099     -0.46661745     -0.02650113
O      -1.91963758     -0.90824425     -0.12754013
C      -2.14924462     -2.30727552     -0.03078924
H      -1.01242855      3.51142632      0.49860146
H      -0.81997663      3.35602661     -1.29165544
H      -2.42336552      3.51401485     -0.56551489
H       1.03776200      2.53101809     -0.10809691
H       2.95110986      1.05857865      0.22538323
H       3.91770278     -1.13875253      0.51999534
H       0.37471087     -2.37923697      0.24677110
H      -3.22558119     -2.47689477     -0.13177010
H      -1.84309245     -2.69109705      0.94790746
H      -1.65058975     -2.84653145     -0.84284974
