25
CCCOC(=O)c1ccc(O)c(I)c1
C      -4.71032152      0.47028156     -0.45137055
C      -3.28120725      0.18479473     -0.87603742
C      -2.29469212      0.41424616      0.26219642
O      -0.97850176      0.12213395     -0.22688400
C       0.00550263      0.28619257      0.69096509
O      -0.14707312      0.64759696      1.84690581
C       1.33365032     -0.03699380      0.10205246
C       1.48424278     -0.45051855     -1.22961774
C       2.75369026     -0.74205986     -1.73423659
C       3.87104438     -0.62176089     -0.91339778
O       5.07959828     -0.92333846     -1.47443059
C       3.73278218     -0.21086017      0.41406670
I       5.39009091     -0.02168597      1.66762180
C       2.46546504      0.08184835      0.92339662
H      -5.39608714      0.29763134     -1.28668940
H      -4.82324335      1.51015084     -0.12855258
H      -5.01132401     -0.18098666      0.37539248
H      -3.19777857     -0.84916480     -1.23182171
H      -3.01220639      0.81937071     -1.72901290
H      -2.52787004     -0.24933633      1.10320115
H      -2.33797201      1.45816398      0.59440898
H       0.62371281     -0.55066745     -1.88696287
H       2.87085431     -1.06264240     -2.76645096
H       5.76165688     -0.79542183     -0.79051856
H       2.34598646      0.40302601      1.95674122
