24
O.O.O.O.O=S(=O)([O-])O.O=S(=O)([O-])[O-].[Ce+3]
O      -0.00031254      0.37294185     -0.00000000
O      -0.00247743      0.36067882     -0.00000000
O      -0.00158511      0.37815550     -0.00000000
O      -0.00345984      0.37001017     -0.00000000
O      -0.97047481     -0.77913770      1.16880383
S      -0.35859747     -0.04226533      0.00307893
O      -0.37766722     -0.96414311     -1.16700269
O      -1.35800030      1.27899700     -0.30445471
O       1.17528090      0.49252059      0.38586598
O      -0.26370303     -1.13673288     -0.97375119
S       0.00741568     -0.04620047      0.00655541
O      -0.29656398     -0.54813777      1.38222511
O       1.57639213      0.49500495     -0.10253515
O      -1.02354080      1.23606617     -0.31249418
Ce      0.00000000      0.00000000      0.00000000
H       0.81131428     -0.18636647      0.00000000
H      -0.81100174     -0.18657538     -0.00000000
H       0.82585158     -0.17953926      0.00000000
H      -0.82337415     -0.18113956     -0.00000000
H      -0.81551980     -0.18965117     -0.00000000
H       0.81710491     -0.18850432      0.00000000
H      -0.81360514     -0.18620082     -0.00000000
H       0.81706498     -0.18380935      0.00000000
H       1.88945889      0.01402855     -0.08629134
