46
CC1(c2ccc(Oc3ccccc3)cc2)OC(=O)N(Nc2ccccc2)C1=O
C       0.94243752     -4.12612220      1.06735471
C       0.98690246     -2.87406858      0.19630792
C      -0.36929688     -2.17599378      0.14645521
C      -1.21650149     -2.30733394     -0.96852776
C      -2.45501882     -1.66157547     -1.00737283
C      -2.86301949     -0.87008525      0.06349405
O      -4.10388165     -0.28340318     -0.02929429
C      -4.20802275      1.03620086      0.34670864
C      -5.28923211      1.38059833      1.15834529
C      -5.47058142      2.70795027      1.54806024
C      -4.57974206      3.69004563      1.11367585
C      -3.51223824      3.34865412      0.28220500
C      -3.32861816      2.02161905     -0.10950759
C      -2.05701814     -0.75984832      1.19640009
C      -0.81831613     -1.40536051      1.23533145
O       1.41344789     -3.25992560     -1.12795873
C       2.46789895     -2.47755367     -1.49531040
O       3.11867233     -2.66566528     -2.51351738
N       2.72503436     -1.56070554     -0.52785247
N       3.96179407     -0.87735403     -0.51516623
C       3.83315732      0.50401165     -0.82668025
C       4.85207742      1.13265851     -1.55883125
C       4.79868032      2.50129276     -1.83622352
C       3.74024919      3.26867032     -1.35653285
C       2.74318836      2.66986846     -0.59162036
C       2.79664451      1.30009862     -0.31755875
C       2.11133776     -1.94451917      0.62875398
O       2.39742609     -1.65078521      1.78181110
H       0.66427493     -3.89818823      2.10228490
H       0.22423247     -4.85374113      0.67101111
H       1.91891269     -4.62491482      1.08390432
H      -0.92697785     -2.91860087     -1.82224759
H      -3.09935956     -1.77349811     -1.87596859
H      -5.98610340      0.61577909      1.48906994
H      -6.30811427      2.97739805      2.18571474
H      -4.72292242      4.72456799      1.41606733
H      -2.82747940      4.11716200     -0.06609971
H      -2.50693409      1.76651075     -0.77287804
H      -2.38611861     -0.17982686      2.05511972
H      -0.21119935     -1.30031818      2.13475399
H       4.60730586     -1.32086803     -1.17567163
H       5.69822275      0.55963972     -1.93121475
H       5.58829091      2.96831664     -2.41975639
H       3.70167232      4.33504375     -1.56413574
H       1.92941427      3.27010112     -0.19218978
H       2.02542157      0.87406828      0.31777198
