44
CN(C)CC(c1ccc(O)cc1)C1(O)CCCCC1
C      -2.30112154     -3.25706787      1.26454010
N      -1.69097971     -2.55378044      0.12884711
C      -2.53397162     -2.74804835     -1.06132168
C      -1.54537722     -1.11255027      0.44782196
C      -0.54208310     -0.33208945     -0.46927322
C      -0.64650453      1.17016131     -0.21393082
C      -0.75668438      2.04684071     -1.31032140
C      -0.87443273      3.42681211     -1.12431879
C      -0.89076724      3.94162287      0.16509205
O      -1.00266726      5.28013720      0.39635972
C      -0.79534108      3.09974957      1.26408833
C      -0.67804392      1.72018284      1.07632751
C       0.91069965     -0.95792698     -0.51537781
O       0.75882314     -2.26952038     -1.12372749
C       1.59540452     -1.22271047      0.84377449
C       2.37708494     -0.05048336      1.42574799
C       3.35671387      0.53199970      0.41777438
C       2.65101688      0.93997204     -0.86678639
C       1.87456793     -0.22339873     -1.47749815
H      -1.66267645     -3.17878853      2.15161284
H      -2.39987225     -4.32644717      1.04676768
H      -3.29197900     -2.86012417      1.51351472
H      -3.53836081     -2.32936297     -0.93020640
H      -2.08246129     -2.29284313     -1.94789380
H      -2.63399652     -3.81634408     -1.28493105
H      -1.20447639     -1.01878224      1.48561752
H      -2.53106212     -0.62598959      0.41884508
H      -0.94175393     -0.47097889     -1.48501403
H      -0.74654356      1.65705682     -2.32691563
H      -0.95153666      4.07433320     -1.99173902
H      -1.04691643      5.73843871     -0.45867749
H      -0.81216498      3.51511499      2.26784583
H      -0.60738254      1.09022426      1.95908991
H       0.03789108     -2.72075647     -0.63106026
H       2.30297151     -2.05540363      0.71594591
H       0.88174141     -1.59288504      1.58603938
H       2.92980456     -0.39061323      2.30962069
H       1.70027918      0.73139643      1.77452169
H       3.86269331      1.40085790      0.85364965
H       4.13391232     -0.20816461      0.19082613
H       3.39405923      1.29536473     -1.59053852
H       1.99316552      1.78890408     -0.66569628
H       2.61138821     -0.94690453     -1.85653712
H       1.33694000      0.11279512     -2.37250532
