32
CCNc1nc(N(CC)CC)nc(=O)[nH]1
C       4.65817278      0.72512064      0.44967194
C       3.20836777      0.62002140      0.00917345
N       2.75506008     -0.75503869      0.12581361
C       1.44283294     -1.09103076     -0.05424177
N       0.49277702     -0.23024100     -0.13934787
C      -0.78977883     -0.66805044     -0.32224531
N      -1.78968818      0.28455432     -0.44357709
C      -1.49866888      1.71394930     -0.36226230
C      -1.35686383      2.17391351      1.08046054
C      -3.18462600     -0.10910754     -0.64143635
C      -3.84782863     -0.48889006      0.67326604
N      -1.07879427     -1.92845518     -0.38685049
C      -0.09303456     -2.84931051     -0.25910898
O      -0.30548803     -4.05974086     -0.24369382
N       1.18170178     -2.40778091     -0.14064590
H       4.77734375      0.39801086      1.48804112
H       5.30558784      0.10001204     -0.17447262
H       5.00598594      1.75991800      0.37363823
H       2.59595468      1.27763172      0.63641570
H       3.11380149      0.95396715     -1.02989093
H       3.43714683     -1.44994923     -0.14903739
H      -2.29108232      2.29878646     -0.84418541
H      -0.58328965      1.94864416     -0.91867137
H      -1.11053303      3.23999601      1.11273256
H      -2.28713330      2.02839536      1.63697542
H      -0.56568929      1.62879064      1.60428001
H      -3.24726681     -0.94844427     -1.34448981
H      -3.75441306      0.70448627     -1.10571340
H      -3.31863367     -1.30672076      1.17201862
H      -4.87851019     -0.81177179      0.49531641
H      -3.87742541      0.35968525      1.36272132
H       1.88401505     -3.11135113     -0.00576546
