24
OCC(O)COc1ccc(Cl)cc1
O      -3.44808257      1.93108334      0.43559063
C      -3.48032601      0.97722527     -0.62500599
C      -2.48509571     -0.14857038     -0.34897425
O      -2.83546111     -0.75083677      0.91006510
C      -1.04294429      0.36740162     -0.27550536
O      -0.19117030     -0.77726203     -0.12161323
C       1.15458212     -0.54433807     -0.05527231
C       1.77315272      0.70730010     -0.06867369
C       3.16748602      0.80208770      0.00765362
C       3.94106035     -0.35321447      0.09796929
Cl      5.65413299     -0.23140370      0.19109723
C       3.33310167     -1.60501314      0.11365792
C       1.94132848     -1.69680654      0.03763967
H      -3.57079902      1.40325328      1.25055886
H      -3.25308868      1.49162236     -1.56331324
H      -4.50083080      0.58423382     -0.67820900
H      -2.57249673     -0.92610851     -1.11588901
H      -2.11288136     -1.37642856      1.11336875
H      -0.92397422      1.02132259      0.59655044
H      -0.79138886      0.89963167     -1.20015882
H       1.20440185      1.62933649     -0.13383059
H       3.64123736      1.78037306     -0.00254396
H       3.93080551     -2.50946617      0.18461066
H       1.46725060     -2.67542298      0.04967509
