30
O=S(=O)([O-])CCNC1CCCCC1.[Na+]
O       4.33182630      1.15404828     -0.60766358
S       4.40545062      0.11119355      0.41292093
O       5.22823076      0.44706643      1.57365705
O       4.60364188     -1.24291369     -0.10141453
C       2.76048313      0.06026821      1.09012786
C       1.73023378     -0.25648460      0.01491304
N       0.38113231     -0.41868106      0.61014814
C      -0.62229523     -0.82183755     -0.38850557
C      -1.88261983     -1.32469921      0.34317717
C      -2.63082779     -0.20866976      1.07470004
C      -2.97322997      0.94679324      0.13834519
C      -1.74566476      1.46063709     -0.60916361
C      -1.01624904      0.32818128     -1.33268588
Na      0.00000000      0.00000000      0.00000000
H       2.56160145      1.03381703      1.55087177
H       2.76281084     -0.70322451      1.87602150
H       2.00750500     -1.17898975     -0.50823793
H       1.72181892      0.55373046     -0.72076945
H       0.45307431     -1.14447265      1.32376552
H      -0.22944042     -1.65780897     -0.98108422
H      -2.55886731     -1.78220682     -0.39100365
H      -1.62240575     -2.11853624      1.05446714
H      -2.02462892      0.16327670      1.90936121
H      -3.55242472     -0.61120991      1.51049611
H      -3.42689180      1.76408094      0.71021323
H      -3.72438238      0.61221661     -0.58799170
H      -2.05373650      2.22046189     -1.33650672
H      -1.06514982      1.95459581      0.09461551
H      -0.14323306      0.73054443     -1.85717762
H      -1.67576200     -0.07117726     -2.11478294
