38
CCCCCCC(CCCC)C(=O)O
C      -5.85403317     -0.18441103      1.07340980
C      -4.79296025     -1.03527361      0.39378346
C      -3.38562970     -0.50676055      0.67546426
C      -2.32366933     -1.36549602     -0.01499367
C      -0.88718690     -0.95830234      0.33047487
C      -0.50112740      0.42326834     -0.20827304
C       0.95637910      0.80735539      0.10600214
C       1.97436528      0.03612208     -0.75270046
C       3.42339746      0.30702935     -0.32805184
C       4.40810465     -0.50616328     -1.16914258
C       5.84639917     -0.24272432     -0.75264207
C       1.09886391      2.29734519     -0.12395852
O       1.22953290      2.86462524     -1.19553439
O       1.04023792      3.00416389      1.02138370
H      -6.85169583     -0.58035885      0.85940444
H      -5.71629782     -0.17913178      2.15937925
H      -5.81535407      0.84983641      0.71680011
H      -4.97740090     -1.04518018     -0.68678180
H      -4.88092750     -2.06901820      0.74780394
H      -3.31750567      0.52954794      0.32666985
H      -3.20648666     -0.49895383      1.75736082
H      -2.46153716     -2.41184432      0.28515556
H      -2.46530826     -1.32824344     -1.10198311
H      -0.21887182     -1.71849355     -0.08792111
H      -0.75097574     -0.98218521      1.41841504
H      -1.16589591      1.17676903      0.23124954
H      -0.66959037      0.45914341     -1.29228414
H       1.16505489      0.60355368      1.16439045
H       1.85122898      0.29910458     -1.81103643
H       1.78975820     -1.04055658     -0.67160884
H       3.65440245      1.37343809     -0.43262176
H       3.54823469      0.05116302      0.73116212
H       4.19383314     -1.57602777     -1.06359303
H       4.28872187     -0.25402310     -2.22926403
H       6.53307338     -0.83417535     -1.36628982
H       6.00733255     -0.51454187      0.29547126
H       6.10369615      0.81396577     -0.87730741
H       1.12983774      3.93543376      0.72899216
