20
COC(=O)c1cc(Cl)cc(N)c1Cl
C       3.66002476     -0.10916781      0.56273411
O       2.23692915     -0.00835004      0.61989511
C       1.64379413      0.04803829     -0.59499296
O       2.18976388      0.07859771     -1.68433992
C       0.19147024      0.18485805     -0.41650312
C      -0.40395787      1.33038471     -0.95810930
C      -1.77074758      1.52683625     -0.80134865
Cl     -2.50398351      2.95325648     -1.42324326
C      -2.55120217      0.58247514     -0.13392799
C      -1.98009765     -0.60255413      0.34951571
N      -2.78161358     -1.47533972      1.11006433
C      -0.58418551     -0.78172759      0.23781506
Cl      0.11802450     -2.24906342      0.84676573
H       4.03609172     -0.18298226      1.58683452
H       3.96018010     -1.00969495      0.01764136
H       4.08771247      0.78532375      0.09925605
H       0.20233986      2.06636293     -1.48196971
H      -3.61329448      0.76895680      0.00705372
H      -3.76102896     -1.50150761      0.84328627
H      -2.37621951     -2.40470256      1.21357295
