39
OCC1OC(n2c(-c3ccco3)nc3ccccc32)C(O)C1O
O       2.86762724      2.42519203     -0.56481370
C       3.34074667      1.31874271     -1.33870285
C       2.25335176      0.25640457     -1.55328470
O       1.83846156     -0.27327694     -0.27778618
C       0.59077777      0.36589401      0.09851295
N      -0.38352347     -0.63954583      0.51708211
C      -1.41587057     -0.41324567      1.41266859
C      -1.74290479      0.82871094      2.05539230
C      -2.71887386      1.05015089      3.01564486
C      -2.69834038      2.42877542      3.33362938
C      -1.71450553      2.97885292      2.55119506
O      -1.13423677      2.02604452      1.78098628
N      -2.12510141     -1.50765454      1.60588641
C      -1.57584172     -2.45865517      0.79363656
C      -1.97433843     -3.79159531      0.60831365
C      -1.26804381     -4.59125807     -0.29411679
C      -0.18319665     -4.07233834     -0.99700267
C       0.22787487     -2.74488056     -0.82259583
C      -0.48921875     -1.95064076      0.08492912
C       0.10509095      1.21277903     -1.09003090
O       0.31754019      2.62549065     -0.91558651
C       0.97197572      0.72025135     -2.23782027
O       1.17307222      1.69749639     -3.24802973
H       3.65649956      2.96201171     -0.35548103
H       3.71076308      1.70038283     -2.29561112
H       4.17800580      0.87709018     -0.78799899
H       2.70419213     -0.56233595     -2.12562821
H       0.83404451      0.97464241      0.97330156
H      -3.36798260      0.28756413      3.42568176
H      -3.32392498      2.95440542      4.04127644
H      -1.32787707      3.98116212      2.42626510
H      -2.82029849     -4.18461772      1.16129422
H      -1.56821302     -5.62539386     -0.44395051
H       0.35873681     -4.71104084     -1.69165007
H       1.08266586     -2.37146060     -1.37199575
H      -0.96069279      1.09291515     -1.30659732
H       1.24428199      2.73939915     -0.60068419
H       0.48731645     -0.14994910     -2.69634711
H       0.84995994      2.54353076     -2.86998195
