49
O=C(CCCN1CCC(O)(c2ccc(Cl)cc2)CC1)c1ccccc1
O       3.86496843     -0.71167697      1.85997238
C       4.03653329     -0.10629085      0.80381282
C       2.91263187      0.11696160     -0.19505288
C       1.61823514     -0.58616576      0.22329851
C       0.49177916     -0.30345617     -0.77884986
N      -0.72495492     -1.09851285     -0.53634667
C      -1.65234585     -0.95713166     -1.66847282
C      -2.92057419     -1.79288179     -1.48042972
C      -3.64769787     -1.48139628     -0.15947065
O      -4.62194950     -2.52571401      0.02512072
C      -4.43229539     -0.16204249     -0.10052109
C      -5.08777782      0.19878969      1.09584244
C      -5.82929173      1.37979671      1.19881719
C      -5.94379617      2.21863521      0.09783085
Cl     -6.85468407      3.67225777      0.21541048
C      -5.33309950      1.87772146     -1.10384021
C      -4.59180198      0.69362415     -1.20359115
C      -2.61207820     -1.61923428      0.97131325
C      -1.38220394     -0.74517460      0.73069951
C       5.39287148      0.44072646      0.48892592
C       6.44097025      0.17979129      1.38314453
C       7.72438440      0.66927241      1.13267890
C       7.97009320      1.42383638     -0.01230029
C       6.93434773      1.69019758     -0.90655246
C       5.64785818      1.20165886     -0.65910827
H       3.22889226     -0.27021449     -1.17010382
H       2.73014392      1.19465898     -0.27318524
H       1.79573796     -1.66688290      0.29266690
H       1.33530463     -0.24175254      1.22450506
H       0.87405719     -0.54728201     -1.77884334
H       0.25837535      0.76941745     -0.78174438
H      -1.90296032      0.09808612     -1.82555908
H      -1.16169180     -1.30445407     -2.58639748
H      -2.64192148     -2.85710778     -1.49094891
H      -3.58912796     -1.67855684     -2.34223572
H      -5.44406177     -2.24159559     -0.41005538
H      -5.04018769     -0.45485474      1.96598752
H      -6.31723075      1.62947198      2.13722730
H      -5.43270739      2.52434209     -1.97204010
H      -4.15301361      0.46517572     -2.17055103
H      -3.03993639     -1.39058896      1.95365851
H      -2.29750645     -2.67048467      1.04763582
H      -0.70251204     -0.91756267      1.57170017
H      -1.65813086      0.31671246      0.74873934
H       6.26233255     -0.40856885      2.28173446
H       8.52995799      0.46040704      1.83237793
H       8.96967853      1.80499869     -0.20718477
H       7.12942542      2.28064444     -1.79881928
H       4.86696070      1.43239926     -1.37689480
