42
CC[C@H]1OC[C@@H](COc2ccc(Oc3ccccc3)cc2)O1
C       7.67219514     -0.04508752     -0.72577457
C       6.28394065      0.07454451     -1.33359504
C       5.33363827     -1.01164377     -0.83817803
O       5.14748623     -0.91246066      0.58045395
C       3.79507068     -0.48089725      0.74566730
C       3.10208165     -1.04880566     -0.46908866
C       1.78925645     -0.35634646     -0.80586733
O       0.87807419     -0.53818488      0.27678684
C      -0.36445234      0.01759346      0.14466337
C      -0.82687967      0.74445446     -0.95387331
C      -2.12750604      1.25978907     -0.95683472
C      -2.97277187      1.03580053      0.12933047
O      -4.22643640      1.59978038      0.07367682
C      -5.29265800      0.80901586      0.43778304
C      -6.25483012      1.38728778      1.26634818
C      -7.37745676      0.65201954      1.64724165
C      -7.54389282     -0.65440864      1.18621041
C      -6.59263071     -1.22444718      0.33885997
C      -5.46870805     -0.49095418     -0.04297334
C      -2.51090109      0.32862581      1.23918245
C      -1.21153759     -0.18386583      1.23912234
O       4.07088341     -0.86497475     -1.50623599
H       8.12330136     -1.01189606     -0.96976084
H       8.32498617      0.74190985     -1.11688427
H       7.64017090      0.05599870      0.36343703
H       6.35290466      0.03363257     -2.42705611
H       5.87444791      1.06178067     -1.08656246
H       5.73092474     -2.00714873     -1.06398151
H       3.79144051      0.61484007      0.75535924
H       3.39025130     -0.85036265      1.69185107
H       2.94427638     -2.12720562     -0.33808203
H       1.38555376     -0.79588286     -1.72702157
H       1.97234359      0.71144813     -0.98418862
H      -0.20459137      0.93323991     -1.82241059
H      -2.48240912      1.83269423     -1.80957840
H      -6.12746325      2.40712079      1.61775455
H      -8.12370713      1.09830266      2.29950326
H      -8.41973361     -1.22641566      1.48127511
H      -6.72945820     -2.23807439     -0.02896530
H      -4.74193148     -0.93630454     -0.71592923
H      -3.14790605      0.17627562      2.10549082
H      -0.85536625     -0.74070118      2.10284407
