39
CCCC(=O)OCC1OC(n2cc(I)c(=O)[nH]c2=O)CC1O
C       1.95910106     -2.83018459      1.38102842
C       2.96868259     -2.93722912      0.24633878
C       3.50995783     -1.57576779     -0.18462956
C       2.47363800     -0.73895129     -0.89807739
O       1.55682444     -1.18695612     -1.57238196
O       2.73996017      0.58275805     -0.70859771
C       1.78283715      1.51239244     -1.25024999
C       0.94291361      2.10165154     -0.11237688
O       0.12867289      1.05180091      0.46936589
C      -1.24526851      1.46805668      0.40145230
N      -2.14652144      0.33186861      0.24904801
C      -1.70117364     -0.88952946     -0.22478244
C      -2.50626098     -1.94693750     -0.38956776
I      -1.82461819     -3.74552816     -1.07930120
C      -3.94566317     -1.77647074     -0.05201876
O      -4.78060082     -2.66799835     -0.16860125
N      -4.30662757     -0.53562732      0.40057279
C      -3.48341135      0.54759035      0.55105867
O      -3.94097145      1.62681279      0.91956196
C      -1.32174224      2.44682107     -0.76146693
C      -0.01528532      3.18668631     -0.61348682
O      -0.15895576      4.20024790      0.38224676
H       1.62240943     -3.82749433      1.68181529
H       1.07903404     -2.25433452      1.08113605
H       2.40394104     -2.34542792      2.25613054
H       2.50645534     -3.45453003     -0.60236991
H       3.80652347     -3.55896521      0.58283551
H       3.87476791     -1.03333274      0.69520404
H       4.35032303     -1.71112900     -0.87428347
H       1.14875544      1.04711623     -2.01290305
H       2.35940508      2.30481791     -1.73936112
H       1.59993280      2.46971508      0.68379162
H      -1.47700872      1.97571246      1.34707576
H      -0.64419201     -0.96143965     -0.45885654
H      -5.28117021     -0.39829097      0.61902943
H      -2.20641080      3.08768108     -0.70382466
H      -1.33978163      1.90822308     -1.71677292
H       0.31873493      3.67387525     -1.53402055
H      -0.80720646      4.85229706      0.06021691
