26
CCCCC(NC(N)=O)C(=O)O
C       3.56355976      1.19986750     -0.86016042
C       2.44324896      0.29000304     -1.33830580
C       1.34626045      0.14984218     -0.28247057
C       0.22021733     -0.76823158     -0.77023407
C      -0.87591372     -0.96678328      0.28765093
N      -1.56418016      0.29875808      0.56002499
C      -2.27481996      0.47316506      1.70229989
N      -2.83846807      1.69565859      1.79525491
O      -2.43237949     -0.40554411      2.53859905
C      -1.87249451     -2.05831834     -0.15481991
O      -1.81686019     -2.65918487     -1.21924741
O      -2.82006363     -2.34275935      0.77218735
H       4.33681322      1.28565594     -1.62998101
H       3.18731473      2.20469123     -0.64312102
H       4.03016121      0.80386990      0.04747351
H       2.85854139     -0.69587355     -1.57758198
H       2.01942300      0.69715526     -2.26366544
H       0.94486436      1.14178620     -0.04378948
H       1.77617806     -0.25640208      0.64115560
H       0.64932297     -1.74238797     -1.03790089
H      -0.21718424     -0.35461724     -1.68835667
H      -0.41196569     -1.32457998      1.21609316
H      -1.93894668      0.79216401     -0.24053047
H      -3.28365908      1.87485417      2.68788929
H      -2.29687807      2.47176837      1.44032635
H      -2.73209197     -1.80455720      1.59771289
