30
Cc1ccnc(NS(=O)(=O)c2ccc(N)cc2)n1
C       2.27843816     -0.03185961     -2.18234054
C       2.50041192      0.50636031     -0.80140357
C       3.64871805      1.21292801     -0.50146129
C       3.74998795      1.68449826      0.78816568
N       2.81132756      1.48154119      1.72952796
C       1.76871531      0.74164441      1.34257095
N       0.75328864      0.68703418      2.28816119
S      -0.09632686     -0.73256421      2.41881956
O       0.78338390     -1.86232654      2.20383765
O      -0.85226680     -0.62945591      3.65264647
C      -1.28278853     -0.64798340      1.10049634
C      -1.18426735     -1.51516576      0.01154629
C      -2.13872734     -1.45027547     -1.00705756
C      -3.21812183     -0.56455046     -0.92137335
N      -4.10067685     -0.42542229     -1.99914615
C      -3.27552201      0.32886640      0.15370618
C      -2.32760236      0.27523379      1.17898926
N       1.53613702      0.28126552      0.11293317
H       2.25006279      0.78744357     -2.90735063
H       1.32859701     -0.57305094     -2.24210225
H       3.08191408     -0.72413231     -2.45240041
H       4.42291416      1.39754922     -1.23452026
H       4.61284534      2.26188964      1.10790054
H       1.01172939      1.09416398      3.17852813
H      -0.36098695     -2.22151070     -0.06336034
H      -2.03259201     -2.10172968     -1.87047804
H      -4.99715005     -0.02258642     -1.74443583
H      -4.20316443     -1.26873396     -2.55509201
H      -4.06553412      1.07369926      0.20386694
H      -2.40274382      0.95722989      2.02221136
