18
CC(C)C(C)O
C       1.48549486      1.21858999      0.47934933
C       0.56975349     -0.01057785      0.45865412
C       1.17773944     -1.07541287     -0.45932236
C      -0.86507626      0.39070042      0.05629377
C      -1.85785842     -0.76286246      0.14573554
O      -0.87323939      0.90394355     -1.27378241
H       2.48466752      0.95069670      0.83950724
H       1.08743469      1.98844948      1.14880128
H       1.59476977      1.65800872     -0.51782049
H       0.53946502     -0.41855701      1.47728253
H       2.19997689     -1.31542132     -0.14659513
H       0.60297908     -2.00572610     -0.42439352
H       1.21795455     -0.73685488     -1.49986126
H      -1.20610915      1.19500890      0.71936893
H      -1.84172326     -1.22768906      1.13595127
H      -1.65813859     -1.52662485     -0.61266267
H      -2.87377195     -0.40054008     -0.04757717
H      -1.78431830      1.17486871     -1.47892899
