68
CCCCC(CC)COC(=O)CCCCC(=O)OCC(CC)CCCC
C       9.80536043      1.56052626      1.46949191
C       9.74103016      0.83641822      0.13350509
C       8.42978445      1.06326133     -0.62491066
C       7.21991348      0.41107362      0.05226166
C       5.88186643      0.68084843     -0.66867281
C       5.84927447      0.22345193     -2.14464343
C       6.08877034     -1.26346932     -2.36649494
C       4.73003189      0.07253049      0.15469990
O       3.47726249      0.40502950     -0.45932636
C       2.39371059     -0.20198089      0.10344937
O       2.43353699     -0.96362570      1.05920775
C       1.14543884      0.21452522     -0.64155801
C      -0.11339010     -0.50982093     -0.16272968
C      -0.64104137      0.04239226      1.16819355
C      -1.88219205     -0.70722029      1.65328792
C      -3.10327074     -0.43021529      0.80669010
O      -3.28310994      0.57932618      0.14089472
O      -3.98704940     -1.46107933      0.92981067
C      -5.22889878     -1.31367831      0.22246018
C      -6.25615670     -0.52040802      1.05331627
C      -6.80377912     -1.34188183      2.24621988
C      -5.76450701     -1.74065835      3.28336336
C      -7.45084962     -0.06922353      0.18133482
C      -7.08519999      1.02080146     -0.83447163
C      -8.31028358      1.64099202     -1.51320038
C      -9.08733391      0.65944269     -2.37678540
H       9.62725335      2.63289955      1.34279901
H       9.07041369      1.16795132      2.17735896
H      10.79580684      1.43283048      1.91795121
H       9.90203244     -0.23659874      0.28990812
H      10.56797664      1.19305490     -0.49237659
H       8.25447384      2.13892977     -0.74528948
H       8.55612329      0.64586139     -1.62994814
H       7.38897919     -0.66863359      0.14285213
H       7.13304633      0.79408725      1.07581686
H       5.72299823      1.76840179     -0.68730718
H       4.88040571      0.48648479     -2.58617141
H       6.59186919      0.78842532     -2.72006682
H       6.04509215     -1.49081132     -3.43697265
H       7.07350580     -1.57133840     -2.00446236
H       5.32798159     -1.87253584     -1.87006217
H       4.73885010      0.49138979      1.16840122
H       4.83943212     -1.01621034      0.22461191
H       1.02308071      1.29872411     -0.55045619
H       1.30176307     -0.03384520     -1.69732108
H      -0.88688896     -0.39427040     -0.93124321
H       0.08361699     -1.58505257     -0.06845678
H       0.13406103     -0.04631365      1.93775043
H      -0.86194226      1.11176638      1.06250989
H      -1.67985031     -1.78495489      1.65892973
H      -2.12137577     -0.39796679      2.67711985
H      -5.03819643     -0.86189825     -0.75561299
H      -5.60547671     -2.32320965      0.02385133
H      -5.77147094      0.37204001      1.47029045
H      -7.56979845     -0.74718599      2.76082747
H      -7.30703826     -2.24505381      1.87917153
H      -6.26039538     -2.14824145      4.17054487
H      -5.09516882     -2.51808669      2.90407657
H      -5.16581896     -0.87980197      3.59693757
H      -7.87077010     -0.94052038     -0.33716376
H      -8.24199291      0.32347688      0.83403745
H      -6.53873287      1.82230958     -0.32161652
H      -6.41513319      0.62082721     -1.60388982
H      -8.97859041      2.06939677     -0.75677682
H      -7.97398562      2.47366656     -2.14374940
H      -9.53659707     -0.13697705     -1.77548843
H      -9.89875492      1.17877609     -2.89720480
H      -8.43970228      0.20084920     -3.13059893
