39
Cc1ccc(-c2ncc(Cl)cc2-c2ccc(S(C)(=O)=O)cc2)cn1
C       3.33406518      3.45673120     -0.80722871
C       2.87590019      2.03265590     -0.71137658
C       3.15890876      1.13707277     -1.73629319
C       2.72039023     -0.18194164     -1.61839391
C       2.00383736     -0.59483893     -0.48878728
C       1.52395027     -1.97996819     -0.34909585
N       2.49664893     -2.91371045     -0.55413096
C       2.16238748     -4.21884843     -0.42399059
C       0.89129791     -4.65508522     -0.10549259
Cl      0.54141342     -6.32785406      0.04061115
C      -0.10228494     -3.70342810      0.08529850
C       0.19171932     -2.33262312     -0.03899097
C      -0.89398874     -1.35176714      0.12561439
C      -1.53585820     -1.19348047      1.36693637
C      -2.54628068     -0.24384921      1.53650207
C      -2.92012713      0.55951051      0.45838235
S      -4.19679621      1.77744443      0.66808301
C      -3.29139555      3.24675708      1.07852104
O      -4.98239182      1.39184902      1.82506998
O      -4.82532034      1.97597585     -0.62403881
C      -2.32327842      0.39816424     -0.79238283
C      -1.31387368     -0.55343701     -0.95312042
C       1.79651273      0.37662330      0.48886132
N       2.19793330      1.67048152      0.40111329
H       4.42581278      3.49909641     -0.87047212
H       3.02086826      4.02698477      0.07324938
H       2.90311778      3.93396562     -1.69283669
H       3.71502190      1.45135308     -2.61358781
H       2.94316951     -0.89320867     -2.41124038
H       2.97608305     -4.91925321     -0.58954339
H      -1.11625911     -4.02432565      0.31582845
H      -1.24312814     -1.80595891      2.21871224
H      -3.02994495     -0.14003450      2.50579531
H      -2.72938816      3.07403302      1.99830985
H      -4.00937673      4.05588888      1.22876590
H      -2.62040353      3.49489859      0.25398815
H      -2.63307993      1.00200123     -1.64292441
H      -0.85189755     -0.66693581     -1.93306502
H       1.28603545      0.13906127      1.41858938
