37
O=C1C=CC=C2C(=O)C(NNc3cc(S(=O)(=O)[O-])ccc3O)=CC=C12.[Na+]
O      -5.58870511     -1.46960783      2.23183304
C      -5.30962838     -0.75416920      1.27701751
C      -6.38629671     -0.13465731      0.45911968
C      -6.08800196      0.65174873     -0.58489598
C      -4.72304008      0.93846803     -0.96774303
C      -3.68789672      0.41912125     -0.28672110
C      -2.28955439      0.73882120     -0.70509628
O      -2.03161532      1.48827537     -1.64489858
C      -1.17892011      0.10235330      0.09924052
N       0.11493720      0.38754624     -0.31980440
N       1.24229762      0.29438906      0.46139400
C       2.52408337      0.00537453     -0.08344431
C       3.66899872      0.43760281      0.58971764
C       4.93723066      0.13113394      0.08022691
S       6.38934973      0.77270193      0.95131861
O       7.43943364      0.72258089     -0.06175531
O       5.95668620      2.11588767      1.33046874
O       6.52007731     -0.18063434      2.04832851
C       5.08837232     -0.61767396     -1.09020899
C       3.95359756     -1.08981193     -1.74684048
C       2.69376934     -0.78710603     -1.23444302
O       1.59938198     -1.30752393     -1.87479575
C      -1.51012899     -0.68489840      1.13882712
C      -2.87379973     -0.96372216      1.53131123
C      -3.90946199     -0.44458712      0.85515469
Na      0.00000000      0.00000000      0.00000000
H      -7.40477152     -0.35433228      0.75376019
H      -6.87933870      1.10123584     -1.17852193
H      -4.56574021      1.58932374     -1.82542923
H       0.12050269      1.15228958     -1.01432032
H       1.33054082      1.03377666      1.16584340
H       3.60653382      1.02192976      1.50399439
H       6.08294474     -0.83632801     -1.46986951
H       4.05005945     -1.69432013     -2.64226348
H       0.85861571     -1.01162537     -1.30364796
H      -0.72572661     -1.15927432      1.72487079
H      -3.02478636     -1.61428820      2.39007967
