21
CCC(NC=NN)C(=O)O
C      -2.19262687      1.70423334      0.17302053
C      -1.91277726      0.23654997     -0.12335037
C      -0.50661024      0.00537069     -0.69390800
N       0.48795166      0.33915537      0.33915405
C       1.76672635      0.63546103     -0.04464295
N       2.82241866     -0.01030147      0.33542129
N       2.57679868     -1.01036584      1.22490669
C      -0.37605792     -1.45759272     -1.17073125
O      -1.21391329     -2.00979950     -1.87420010
O       0.73860393     -2.11409791     -0.77047760
H      -2.07450715      2.31478942     -0.72782502
H      -1.52054327      2.09300354      0.94416555
H      -3.21950373      1.82601254      0.53227282
H      -2.05080381     -0.34936719      0.79425444
H      -2.66774109     -0.11830563     -0.83553568
H      -0.35018187      0.64187882     -1.57371245
H       0.49083369     -0.35316661      1.08776115
H       1.83768767      1.43941563     -0.79743796
H       2.56916179     -0.61035910      2.17268566
H       3.40520083     -1.62029367      1.25761895
H       1.38988324     -1.58222071     -0.24943977
