33
Cc1ccc(C(C)C)cc2c(C)ccc1-2
C      -2.74094678     -2.87991506     -0.61980490
C      -1.57435275     -1.94188968     -0.40588429
C      -0.32920447     -2.44855244     -0.43897953
C       0.95524902     -1.80873291     -0.27157438
C       1.28880181     -0.52591722     -0.03450531
C       2.78055288     -0.17720542      0.09154250
C       3.14583622      0.35131036      1.48350625
C       3.25527484      0.78280293     -1.00542960
C       0.35900500      0.58560109      0.11731223
C      -0.98077555      0.59427386      0.05990731
C      -1.79886999      1.79712414      0.23246954
C      -1.29438451      3.16952624      0.49256757
C      -3.07734050      1.41139594      0.10939159
C      -3.12420766     -0.01176324     -0.13939688
C      -1.88065589     -0.54009527     -0.17631961
H      -2.41971315     -3.91456718     -0.78505525
H      -3.39914365     -2.88717666      0.25605574
H      -3.32193308     -2.58275017     -1.49989540
H      -0.22685693     -3.51968702     -0.62018675
H       1.76944195     -2.53011910     -0.36084028
H       3.36801353     -1.09675742     -0.04204396
H       2.70557553      1.33400655      1.68161630
H       4.23248432      0.45394375      1.57910269
H       2.80702446     -0.33725686      2.26531975
H       2.81902341      1.78132340     -0.89860899
H       4.34448042      0.89552729     -0.96801708
H       2.99452818      0.40202025     -1.99899205
H       0.84232161      1.54163810      0.30430712
H      -0.72487916      3.20315950      1.42693568
H      -0.64789886      3.50670896     -0.32405654
H      -2.11779784      3.88634046      0.58063292
H      -3.95035667      2.04138305      0.18022487
H      -4.05829573     -0.53570022     -0.27130125
