9
c1ccsc1
C       0.69181916     -0.72620415     -0.07006961
C      -0.72986234     -0.69113722      0.02294146
C      -1.21088418      0.59764770      0.09908323
S       0.04717329      1.75749260      0.05843864
C       1.24134385      0.53716147     -0.06134947
H       1.28193348     -1.63171986     -0.13984624
H      -1.36777404     -1.56636252      0.03350634
H      -2.24092539      0.91740568      0.17676926
H       2.28717618      0.80571629     -0.11947360
