33
CN1CCOc2nc(C#Cc3ccccc3)ccc21
C      -4.92280934      0.77280538     -1.37528292
N      -4.19156297     -0.17162458     -0.53776693
C      -4.78645886     -0.45935264      0.77395743
C      -3.96419073     -1.52855530      1.48422791
O      -2.64520386     -1.05727190      1.76079766
C      -2.04286740     -0.51803252      0.64556498
N      -0.69866811     -0.43882862      0.76699400
C      -0.03026836      0.07366938     -0.28085759
C       1.38670490      0.13293794     -0.11994945
C       2.57910177      0.18160090      0.01969117
C       3.99679005      0.23438346      0.19960362
C       4.81992074      0.68472035     -0.83521544
C       6.20389620      0.73497781     -0.65556286
C       6.76519434      0.33546209      0.55738741
C       5.94465915     -0.11460442      1.59167433
C       4.56077781     -0.16535838      1.41337740
C      -0.63701988      0.51391648     -1.44393562
C      -2.02701413      0.43494955     -1.53720455
C      -2.78649472     -0.06943494     -0.47486887
H      -6.00299457      0.62523490     -1.26359257
H      -4.69939163      0.62049216     -2.43605692
H      -4.69597304      1.80845056     -1.09881077
H      -5.81359205     -0.81753209      0.64247767
H      -4.81697626      0.45966299      1.37344771
H      -3.90349540     -2.45440477      0.89775161
H      -4.43090764     -1.77595089      2.44340857
H       4.39073094      0.99749857     -1.78356860
H       6.84362903      1.08526703     -1.46130514
H       7.84252187      0.37446696      0.69693178
H       6.38099547     -0.42643056      2.53701400
H       3.92642554     -0.51766658      2.22373824
H      -0.05011249      0.90812199     -2.26622635
H      -2.49534638      0.76587690     -2.45784092
