33
O=C(NC1CC1)c1cc(N2CC2)c([N+](=O)[O-])cc1[N+](=O)[O-]
O       0.90787956      2.11279085     -0.44954568
C       1.13345477      0.94356179     -0.15617527
N       2.36454957      0.46613310      0.23632072
C       3.52752264      1.29815164      0.23990490
C       4.89904814      0.69431987      0.36909711
C       4.46479412      1.29453884     -0.93552966
C      -0.00200697     -0.01033612     -0.16753668
C      -1.22278332      0.46338537      0.35868540
C      -2.38914787     -0.32509636      0.36267830
N      -3.63335326      0.09398046      0.89771762
C      -4.07386063      1.48109135      0.70768697
C      -3.68326627      0.98317754      2.06200725
C      -2.28356982     -1.60869194     -0.20552789
N      -3.44495594     -2.47219004     -0.23971437
O      -3.48761000     -3.37455196      0.60701574
O      -4.25511035     -2.29086018     -1.15718950
C      -1.09654818     -2.11118251     -0.75133156
C       0.03365776     -1.29106223     -0.72291734
N       1.24138965     -1.81045364     -1.31503932
O       1.27793130     -1.88474692     -2.54673855
O       2.12663663     -2.17194476     -0.52826784
H       2.49554648     -0.50886346      0.49846779
H       3.36821836      2.25395628      0.73583512
H       4.99635692     -0.38379274      0.41826662
H       5.63556956      1.23312463      0.95410121
H       4.25477948      0.62450398     -1.76113609
H       4.89797754      2.24214613     -1.23416361
H      -1.24401867      1.47485174      0.76414448
H      -3.41113833      2.13495898      0.15963641
H      -5.12653047      1.55637262      0.46782589
H      -2.74059997      1.28014867      2.49655747
H      -4.46844879      0.71930831      2.75868525
H      -1.06236367     -3.10672928     -1.19028660
