19
O=C(O)COc1cc(Cl)c(Cl)cc1Cl
O      -3.79100163     -0.44738274     -0.83213801
C      -3.20487136      0.59484844     -0.59494750
O      -3.88140155      1.76563119     -0.60395206
C      -1.73563827      0.79412471     -0.26956406
O      -1.05238038     -0.45321401     -0.26770685
C       0.28912481     -0.45623331      0.00876586
C       1.04332546      0.68725626      0.29192307
C       2.41481987      0.58420812      0.56343051
Cl      3.27334816      2.04580639      0.90359554
C       3.04264112     -0.66554536      0.55359422
Cl      4.72760880     -0.85905602      0.87969838
C       2.29915211     -1.81130897      0.27239262
C       0.93250051     -1.70591405      0.00214546
Cl      0.06540951     -3.16242121     -0.33921895
H      -4.80021496      1.49871286     -0.82331386
H      -1.31541518      1.44962706     -1.04064392
H      -1.67954089      1.25279678      0.72406959
H       0.59197531      1.67443287      0.30888916
H       2.78055857     -2.78636900      0.26298082
