52
O=C(NCc1ccc(OC(F)(F)F)cc1)C1c2ccccc2C(=O)N1CCc1ncccn1
O       1.46302290     -2.55350694     -1.07182366
C       0.59174148     -2.17845700     -0.28784542
N       0.83161934     -1.94416056      1.05474228
C       2.16982137     -1.79622706      1.57612486
C       2.63557404     -0.37042146      1.42202587
C       3.53439225     -0.02523293      0.40155628
C       3.93029047      1.30331731      0.21580161
C       3.42692079      2.30755047      1.04233835
O       3.70355022      3.64284653      0.95994060
C       4.72582671      4.05213442      0.06348956
F       5.90371349      3.45594394      0.35908764
F       4.89418659      5.39107303      0.18026197
F       4.38869595      3.78857872     -1.22215028
C       2.53054158      1.96509725      2.05800592
C       2.13899306      0.63937731      2.25555004
C      -0.88848123     -2.03467032     -0.71022227
C      -1.61297577     -3.34814121     -0.66129218
C      -1.37147777     -4.51965445     -1.35959330
C      -2.21739996     -5.61131685     -1.13101224
C      -3.28621816     -5.52206689     -0.21893014
C      -3.52803378     -4.33777127      0.47933300
C      -2.67697557     -3.27530703      0.23864733
C      -2.72386361     -1.91866746      0.79624076
O      -3.56721756     -1.50807446      1.56909444
N      -1.66467421     -1.21968244      0.24176526
C      -1.55875258      0.23603067      0.27835607
C      -2.50318496      0.91830639     -0.70558749
C      -2.21346496      2.38997158     -0.75173779
N      -1.35979562      2.82347497     -1.70046520
C      -1.09307350      4.14332250     -1.70915193
C      -1.63339765      5.03253006     -0.81187877
C      -2.48179646      4.48758965      0.12257975
N      -2.78373997      3.17628182      0.17996569
H       0.06820375     -1.53118823      1.57980689
H       2.14954298     -2.07078775      2.63709255
H       2.84904317     -2.48901578      1.06580593
H       3.92099771     -0.79418371     -0.26837369
H       4.62430561      1.50894476     -0.59477534
H       2.12228368      2.74282058      2.70264704
H       1.43454095      0.40347688      3.04825639
H      -0.95988654     -1.57627137     -1.70347154
H      -0.54941273     -4.59485314     -2.06556693
H      -2.04945077     -6.54279737     -1.66788900
H      -3.93342678     -6.38303133     -0.06160232
H      -4.35483753     -4.24521964      1.17741435
H      -0.51299258      0.50614609      0.08571271
H      -1.79855214      0.55975873      1.29922125
H      -2.38610585      0.49783589     -1.71146750
H      -3.54982926      0.75234677     -0.41731692
H      -0.40872068      4.47225036     -2.48719352
H      -1.40730141      6.08897448     -0.83972967
H      -2.96276851      5.10472549      0.87645609
