22
Cc1ccc(C)c(O)c1C
C      -2.55719618      1.19423036     -0.38070296
C      -1.11737717      0.77441575     -0.26070058
C      -0.11415340      1.69360079     -0.59768682
C       1.23441798      1.35112178     -0.49622268
C       1.61887915      0.08085791     -0.05248219
C       3.08138959     -0.24194538      0.05512216
C       0.61398824     -0.84162113      0.27863367
O       0.92612107     -2.09523131      0.73770525
C      -0.75267135     -0.52234089      0.15937855
C      -1.80110442     -1.53603961      0.54151308
H      -3.10208613      0.96977879      0.54191057
H      -3.03153125      0.67935296     -1.22199346
H      -2.64778134      2.27227787     -0.55225672
H      -0.37726092      2.69251211     -0.93971634
H       1.98392563      2.09290471     -0.76351861
H       3.32800051     -1.10064795     -0.57760964
H       3.70639065      0.59612187     -0.27140010
H       3.34460606     -0.46478506      1.09409547
H       1.88788762     -2.18970952      0.79749210
H      -2.68873179     -1.45005364     -0.09290012
H      -2.09334447     -1.39229792      1.58631734
H      -1.44236808     -2.56250249      0.41502201
