33
CCC(CC)C(=O)Oc1ccccc1C(=O)O
C       2.01409244     -2.74150394     -0.16179204
C       2.01258973     -1.67111109      0.92257277
C       2.06845235     -0.24781587      0.34753794
C       2.38825680      0.77564668      1.45237140
C       2.61554810      2.17997296      0.90725358
C       0.77474339      0.09097102     -0.38350542
O       0.68737558      0.14550703     -1.60558145
O      -0.25548081      0.32505908      0.52008147
C      -1.44738977      0.70669317     -0.10407286
C      -1.67496873      2.08064254     -0.24273020
C      -2.85152400      2.52979121     -0.83930025
C      -3.80095047      1.61089678     -1.28413381
C      -3.57975233      0.23900158     -1.12615364
C      -2.40039039     -0.22967557     -0.52572683
C      -2.18003535     -1.68336694     -0.32299573
O      -1.30490769     -2.20726967      0.33978690
O      -3.08837593     -2.43826408     -0.97091207
H       1.14514937     -2.65310661     -0.81992829
H       2.91719538     -2.67213612     -0.77665889
H       1.99123562     -3.73699182      0.29289906
H       1.12514637     -1.79698877      1.55345865
H       2.88453595     -1.84205348      1.56569610
H       2.87700167     -0.19901351     -0.39431572
H       3.29871112      0.46481653      1.97962516
H       1.58795238      0.80601587      2.20120646
H       2.89264102      2.85815381      1.72067564
H       1.71390501      2.57845106      0.43308849
H       3.42490122      2.18783854      0.17029001
H      -0.93565701      2.79713264      0.10390877
H      -3.02775321      3.59593304     -0.95994790
H      -4.71813381      1.96095156     -1.75235679
H      -4.34055302     -0.45720192     -1.47213291
H      -2.81356096     -3.35697573     -0.76820760
