12
C=C(C)C(=O)[O-].[Zn+2]
C      -0.99566374     -0.88324664      0.59468181
C      -0.04947279     -0.16234462     -0.03111889
C      -0.21162055      1.29846250     -0.31712646
C       1.28541253     -0.82116348     -0.49803090
O       1.40706440     -2.05486619     -0.24926389
O       2.09259496     -0.03640388     -1.07403370
Zn      0.00000000      0.00000000      0.00000000
H      -1.92697844     -0.44222299      0.92505574
H      -0.83983459     -1.94241782      0.78398369
H       0.57672053      1.87680924      0.17565163
H      -0.16489928      1.48704555     -1.39464697
H      -1.17332304      1.68034834      0.04227777
