32
Nc1ncc2ncn(CCC3COC(=O)OC3)c2n1
N      -3.76284246      2.24004989     -1.34346659
C      -3.28918695      1.47155526     -0.29934648
N      -3.87620014      1.66223019      0.89636490
C      -3.45710344      0.92407645      1.95767454
C      -2.44540530     -0.00855645      1.77937421
N      -1.81221513     -0.88378940      2.62838115
C      -0.94012786     -1.51631104      1.87087840
N      -0.96679408     -1.06683720      0.57742328
C      -0.12903992     -1.53351811     -0.50432832
C       0.81947975     -0.47419686     -1.07913142
C       1.75768764      0.20297241     -0.05452135
C       2.67399444      1.19588422     -0.74259288
O       3.67357565      0.55374571     -1.54660607
C       4.12811621     -0.70921877     -1.32765092
O       4.97477037     -1.22148846     -2.04625473
O       3.56158668     -1.39469383     -0.29648810
C       2.69832906     -0.75336763      0.64210594
C      -1.94037511     -0.11112606      0.49442937
N      -2.31981444      0.58874049     -0.58570563
H      -3.62257875      1.75920170     -2.22020271
H      -4.70055202      2.55277165     -1.13149839
H      -3.93932483      1.10153145      2.90965297
H      -0.27024954     -2.29784418      2.20785497
H      -0.80157276     -1.89461284     -1.29167865
H       0.43556873     -2.40200728     -0.14769275
H       1.39981190     -0.94590165     -1.88124469
H       0.22534380      0.30867413     -1.56762671
H       1.15062370      0.73546330      0.68643744
H       3.19642478      1.82437692     -0.01199959
H       2.10497374      1.86785179     -1.39399688
H       3.32154708     -0.24113448      1.38493373
H       2.15154919     -1.53452133      1.17760754
