52
CCCCCCCCCCCCCCN(C)C
C      -6.88564241      2.68509660      1.04964318
C      -6.29029758      1.64247869      0.11538068
C      -5.08433900      0.94939294      0.75078320
C      -4.51844200     -0.19373071     -0.09833257
C      -3.87910020      0.28067491     -1.40564034
C      -3.31976975     -0.86210725     -2.26041561
C      -2.22217940     -1.71166454     -1.61240874
C      -0.98965277     -0.90477502     -1.19980597
C       0.11864604     -1.81794261     -0.67057992
C       1.35030735     -1.01224389     -0.25083445
C       2.45847345     -1.92787603      0.27400141
C       3.67100382     -1.16462777      0.81600601
C       4.43243501     -0.39030355     -0.26480240
C       5.74285665      0.22637227      0.25109267
N       5.58142353      1.14430823      1.39085948
C       6.89339469      1.50293254      1.93560888
C       4.85145737      2.35814358      1.02042835
H      -7.22795543      2.22654379      1.98285733
H      -6.14957073      3.45724665      1.29529241
H      -7.74399001      3.17197936      0.57619572
H      -7.05901206      0.90139554     -0.13197398
H      -5.99964724      2.13601607     -0.81782283
H      -4.29559996      1.68493470      0.95065378
H      -5.38269397      0.53577358      1.72234014
H      -3.76801513     -0.71354943      0.50790503
H      -5.31144020     -0.91973130     -0.31423238
H      -4.62725611      0.80493686     -2.01102941
H      -3.09055620      1.01084654     -1.19133916
H      -4.14511452     -1.52508913     -2.54883100
H      -2.92967140     -0.43493057     -3.19285363
H      -1.92103421     -2.48133333     -2.33442138
H      -2.62368444     -2.24792821     -0.74505265
H      -1.25782123     -0.18131977     -0.42172453
H      -0.61734175     -0.33599534     -2.06030404
H       0.40045755     -2.54167305     -1.44503400
H      -0.25630466     -2.39028372      0.18665954
H       1.06975695     -0.29140209      0.52656562
H       1.71240962     -0.43869476     -1.11126723
H       2.77943240     -2.61427766     -0.51894690
H       2.05613034     -2.54839478      1.08445113
H       4.35047481     -1.88951523      1.28126473
H       3.34269317     -0.48355177      1.60988144
H       3.79756391      0.39030298     -0.69643087
H       4.68033007     -1.07367982     -1.08683273
H       6.25010490      0.73190592     -0.58128161
H       6.39305495     -0.60577603      0.55239530
H       7.42896273      0.60843634      2.27290711
H       7.51796996      2.02366594      1.20062549
H       6.78296730      2.14816458      2.81443856
H       4.77180593      3.03536821      1.87871262
H       3.82342519      2.12845794      0.72353404
H       5.33859467      2.89991566      0.20171448
