31
COP(=O)(OC)O/C(C)=C/C(=O)N(C)C
C       3.23931072     -2.35302031     -1.66623227
O       2.27173660     -1.68059293     -0.88746060
P       2.54617504     -0.11798216     -0.59729419
O       2.87742159      0.70370389     -1.80448371
O       3.71708393     -0.16606952      0.51266795
C       4.21806793      1.08152198      0.94731360
O       1.25536241      0.34571338      0.25415935
C      -0.04258975      0.54128795     -0.20743580
C      -0.27042819      0.40042946     -1.68510097
C      -0.98496286      0.83093677      0.70217246
C      -2.39834472      1.11421134      0.36099468
O      -2.66218000      1.96678672     -0.48262343
N      -3.35764270      0.39370001      1.06013476
C      -3.08209421     -0.82312592      1.81289673
C      -4.74988741      0.61444224      0.70595220
H       3.26119036     -1.93767743     -2.67727282
H       2.96949432     -3.41040048     -1.72514040
H       4.22744055     -2.26563882     -1.20651317
H       3.40810628      1.70090653      1.34189936
H       4.94944252      0.90869290      1.74084867
H       4.71134612      1.59677308      0.11897040
H       0.13266592     -0.54923930     -2.04888235
H      -1.32889059      0.40703055     -1.95842024
H       0.21798339      1.21877088     -2.22243995
H      -0.73168027      0.91158014      1.75245398
H      -3.25706405     -1.68173683      1.15738064
H      -2.05575081     -0.86850506      2.18029123
H      -3.75932314     -0.87398067      2.67061670
H      -4.90594516      1.61400701      0.29092055
H      -5.04435642     -0.12990197     -0.03997675
H      -5.37168740      0.50737657      1.59960339
