46
CN1C[C@@H]2C[C@H]1CN2c1cc2c(cc1F)c(=O)c(C(=O)O)cn2C1CC1
C      -4.41076696     -0.86031891      1.41008243
N      -4.20552270      0.48558796      0.89977649
C      -2.84461162      1.01003825      1.19990424
C      -2.39374392      1.60356641     -0.15785622
C      -3.74477252      2.00402110     -0.75839155
C      -4.31441641      0.59882094     -0.58484518
C      -3.25179581     -0.22708639     -1.38412773
N      -1.99697965      0.49238257     -1.05787168
C      -0.76871548     -0.13630412     -1.06752390
C       0.32569860      0.38361802     -0.34800824
C       1.59553510     -0.22650232     -0.33471849
C       1.77494064     -1.38748136     -1.10410796
C       0.72713754     -1.92337675     -1.84917697
C      -0.51559728     -1.29730016     -1.82647561
F      -1.48269958     -1.84038750     -2.58374732
C       3.10382648     -2.04083845     -1.14269705
O       3.29372011     -3.07845337     -1.77455222
C       4.22020208     -1.40564291     -0.41195700
C       5.60427089     -1.92185290     -0.42098171
O       6.52505969     -1.38569222      0.17868501
O       5.77838942     -3.04777151     -1.14619607
C       3.93608694     -0.30184316      0.29586506
N       2.68895308      0.28518471      0.42228511
C       2.57995141      1.53231544      1.20404944
C       1.71215889      1.61665945      2.43707940
C       3.19986205      1.68871468      2.57260667
H      -3.64596289     -1.57214090      1.08286902
H      -4.40503274     -0.84662333      2.50553482
H      -5.39058886     -1.24044577      1.10182774
H      -2.14967383      0.24496064      1.56343746
H      -2.93280211      1.79702033      1.95612712
H      -1.67887856      2.42757038     -0.10128488
H      -3.67625507      2.31291511     -1.80762898
H      -4.26918041      2.77564126     -0.18364378
H      -5.33771321      0.47183969     -0.94680819
H      -3.44486482     -0.16262541     -2.46095694
H      -3.24733452     -1.27589701     -1.07357931
H       0.18661677      1.29436560      0.22306253
H       0.86096140     -2.81406518     -2.45599520
H       4.95383227     -3.38344434     -1.57652658
H       4.72150472      0.21104885      0.84814029
H       2.61306713      2.41064707      0.56207155
H       1.14328501      2.52533831      2.59438020
H       1.21934320      0.71519293      2.78176735
H       3.64438977      2.64708837      2.81713538
H       3.69911576      0.84155590      3.02904725
