50
C1=CC2C3C=CC(C3)C2C1.C=C(C)C.Cc1ccc(O)cc1
C      -2.37629437      0.27047162      0.32855242
C      -1.53436938      1.30346962      0.42866806
C      -0.24118550      1.05677852     -0.28151292
C       1.00663197      0.91579507      0.62846684
C       2.19340517      0.66012255     -0.27795451
C       2.05169055     -0.57966095     -0.77430751
C       0.77201845     -1.15036228     -0.19702463
C       0.85008962     -0.50383837      1.19079139
C      -0.40679071     -0.39036746     -0.86222521
C      -1.80277713     -0.87185972     -0.44479753
C      -0.05023573      1.52161075      0.28282781
C      -0.00668862      0.20264306      0.03766763
C       1.26560303     -0.58674055      0.14909694
C      -1.22729515     -0.57352727     -0.36475838
C      -2.46954984     -0.03364588      0.12883282
C      -0.97156657      0.02135449      0.07151385
C      -0.21338462     -1.15265817      0.17714883
C       1.18036608     -1.10735720      0.09243011
C       1.81390597      0.11438086     -0.10901061
O       3.17159783      0.20461852     -0.19845959
C       1.07732803      1.28596112     -0.23023551
C      -0.31509555      1.23978915     -0.14547940
H      -3.36668685      0.24776786      0.76362584
H      -1.75619382      2.22458692      0.95094955
H      -0.09644913      1.79720290     -1.07696151
H       1.15761704      1.69398964      1.37792561
H       2.97239028      1.36838991     -0.51539546
H       2.69513532     -1.06774647     -1.49050381
H       0.71454482     -2.23947405     -0.20129939
H      -0.04809770     -0.64743453      1.79880666
H       1.71748258     -0.83631169      1.77672508
H      -0.31378606     -0.39867423     -1.95592066
H      -1.76779163     -1.78291873      0.16051340
H      -2.42058353     -1.06992611     -1.32712167
H      -0.97478833      2.08508818      0.19989366
H       0.83742412      2.07549104      0.57344638
H       1.15708853     -1.37809800      0.89782130
H       1.51140648     -1.04847565     -0.81266799
H       2.11381142      0.03935794      0.44544923
H      -2.11714201      0.06178462     -0.42668068
H      -1.07741853     -1.03476551     -1.34629161
H      -1.43176521     -1.36436860      0.36419572
H      -2.80582731     -0.85071074      0.77576715
H      -2.87907982      0.89507018      0.53989646
H      -2.87691943     -0.18641955     -0.87525851
H      -0.70628401     -2.11062786      0.32713042
H       1.74733338     -2.02815597      0.18216085
H       3.54613067     -0.68506687     -0.09419061
H       1.58453522      2.23239503     -0.39317170
H      -0.88349004      2.16107288     -0.24907456
