29
CCCCC(CC)CO[N+](=O)[O-]
C       4.06382876      1.01270368     -0.12369082
C       3.02038582     -0.08649598     -0.00244409
C       1.62744575      0.48927755      0.25871576
C       0.58074562     -0.62413852      0.37474315
C      -0.82104168     -0.11111401      0.76638234
C      -1.74675264     -1.28126772      1.17570407
C      -2.09601944     -2.25420584      0.05782481
C      -1.43793458      0.77770025     -0.33167230
O      -2.73874890      1.19300648      0.07980929
N      -3.38788586      1.99485287     -0.88885551
O      -2.77154006      2.23799146     -1.92758133
O      -4.51312841      2.34588592     -0.53923368
H       3.82810044      1.68780704     -0.95254499
H       5.05142005      0.57897564     -0.30929142
H       4.11964878      1.60372163      0.79604127
H       3.30377650     -0.76182836      0.81321197
H       3.01160288     -0.67775389     -0.92551500
H       1.64237138      1.07869056      1.18331042
H       1.36547920      1.17002334     -0.55855082
H       0.91949546     -1.34300956      1.13171410
H       0.53057818     -1.16661791     -0.57708779
H      -0.71658206      0.50932374      1.66771708
H      -2.67852570     -0.88061629      1.59327253
H      -1.27124846     -1.84241287      1.99007494
H      -2.64095064     -1.75924424     -0.75101677
H      -2.73778896     -3.05152603      0.44717429
H      -1.20220470     -2.72513789     -0.36076714
H      -0.81139451      1.66548978     -0.47471308
H      -1.49313222      0.21991916     -1.27453780
