63
C[C@H]1CN(C[C@H](Cc2ccccc2)C(=O)NCC(=O)O)CC[C@@]1(C)c1cccc(O)c1
C       1.36806218      0.55731335      1.54788220
C       1.96749993     -0.52046941      0.62293601
C       0.82174554     -1.32378484     -0.03162913
N       0.06487378     -0.51782017     -1.00685129
C      -1.09431893     -1.27016792     -1.53776938
C      -2.31820091     -1.17393576     -0.59757609
C      -3.31675178     -2.30189876     -0.92621111
C      -4.22882113     -2.63618352      0.23436880
C      -3.78086872     -3.46584287      1.27255160
C      -4.61805444     -3.76984312      2.34748172
C      -5.90806075     -3.24573249      2.39739530
C      -6.36165704     -2.41696506      1.37318034
C      -5.52621294     -2.11341601      0.29724131
C      -2.96882303      0.20380747     -0.76059929
O      -4.11533952      0.38382481     -1.16285758
N      -2.15368179      1.25845010     -0.41498898
C      -2.59212501      2.61857857     -0.64147757
C      -1.48104730      3.63613282     -0.41745499
O      -0.28490467      3.38578455     -0.47112214
O      -1.94259555      4.89149625     -0.20129542
C       0.94890318     -0.07642750     -2.09382775
C       2.10975911      0.76599108     -1.55464732
C       2.95262622      0.05467141     -0.45628806
C       3.73054056     -1.10662298     -1.14213760
C       4.01861634      0.96946327      0.19722007
C       4.88889072      0.45022934      1.18036472
C       5.86149925      1.24727185      1.79219116
C       5.98423572      2.58654556      1.44201400
C       5.13092052      3.11806010      0.48718406
O       5.26679275      4.44162427      0.18170244
C       4.16239650      2.32841887     -0.13635579
H       0.84750143      1.34044437      0.99125129
H       0.64870002      0.10918447      2.24235466
H       2.13871730      1.03549457      2.15963270
H       2.51486785     -1.21740955      1.27190657
H       1.22242434     -2.22788259     -0.50649044
H       0.15499789     -1.67618112      0.76418637
H      -1.38995400     -0.86012738     -2.51321331
H      -0.80716161     -2.31367856     -1.71887950
H      -2.00548290     -1.26716945      0.44979311
H      -3.91465558     -2.06042031     -1.81484652
H      -2.77741828     -3.22398089     -1.18303435
H      -2.77666014     -3.88160851      1.24924617
H      -4.26414634     -4.41593382      3.14651524
H      -6.55984400     -3.48123438      3.23437123
H      -7.36573537     -2.00322605      1.41132127
H      -5.89279096     -1.45797481     -0.49092752
H      -1.14642118      1.07139775     -0.38663594
H      -3.41610084      2.81067684      0.05496081
H      -2.95171998      2.71573874     -1.67112852
H      -2.91697037      4.96066640     -0.19164259
H       0.38164615      0.55538275     -2.78863023
H       1.31761150     -0.92822922     -2.67684123
H       1.67889354      1.69342813     -1.15879385
H       2.75118679      1.05910091     -2.39653884
H       4.47428417     -0.71560042     -1.84748907
H       3.08093131     -1.78269921     -1.70434762
H       4.26550139     -1.72894185     -0.41604014
H       4.81621023     -0.58989999      1.49049865
H       6.51852299      0.82126912      2.54589534
H       6.73248471      3.21458968      1.91538798
H       4.53419060      4.69542310     -0.40415093
H       3.52049054      2.79084801     -0.87831501
