27
Cc1cccc2cc3ccccc3cc12
C      -2.82372024      1.90020848      0.32253798
C      -2.37363599      0.46337169      0.26903916
C      -3.34996712     -0.54429640      0.32836952
C      -2.98843497     -1.88607271      0.28281387
C      -1.64603619     -2.23876234      0.17733124
C      -0.64575221     -1.25719575      0.11584632
C       0.70472796     -1.63142784      0.00946115
C       1.73041811     -0.67636738     -0.05429188
C       3.08008654     -1.05266161     -0.16064472
C       4.08735083     -0.08874539     -0.22289354
C       3.75817163      1.26219021     -0.17963305
C       2.42152491      1.64994917     -0.07409896
C       1.39637924      0.69082456     -0.01044449
C       0.04452219      1.06376877      0.09602517
C      -0.99954984      0.11262285      0.16120932
H      -3.91309489      1.97909102      0.40528806
H      -2.52660162      2.42620003     -0.59042187
H      -2.39275341      2.40164858      1.19504443
H      -4.40365210     -0.28642629      0.41090384
H      -3.75184630     -2.65802717      0.32942492
H      -1.38480019     -3.29426473      0.14323077
H       0.96347089     -2.68833870     -0.02447317
H       3.35624222     -2.10410798     -0.19581051
H       5.12712140     -0.39399492     -0.30503801
H       4.54009222      2.01541014     -0.22788696
H       2.18385520      2.71086491     -0.04168798
H      -0.19411827      2.12453879      0.12850584
