22
CC1NC(C)SC(C)S1
C      -1.72525653     -2.28360251      0.07820541
C      -0.78022149     -1.13122525     -0.26777357
N      -1.23042716      0.07240588      0.41823531
C      -0.56506395      1.27988273     -0.05220439
C      -1.29827901      2.50118019      0.50600258
S       1.15537557      1.36027818      0.50646952
C       1.76829720     -0.12920311     -0.31981793
C       3.25665576     -0.28834953     -0.02531262
S       0.89034878     -1.60965315      0.24094322
H      -1.75900708     -2.48250530      1.15628241
H      -2.74770344     -2.05445959     -0.24524478
H      -1.42982369     -3.20808649     -0.43164676
H      -0.80482810     -0.99860914     -1.35611656
H      -2.23493270      0.17343078      0.29087790
H      -0.59549143      1.34731022     -1.14637560
H      -1.31348609      2.51001546      1.60265240
H      -2.33987403      2.51577602      0.16337688
H      -0.83707054      3.43446317      0.16224341
H       1.63900273     -0.02091606     -1.40196183
H       3.82239116      0.57968941     -0.38435141
H       3.66667371     -1.16531160     -0.54036600
H       3.46272032     -0.40251033      1.04588239
