30
CCCNC(=O)NS(=O)(=O)c1ccc(Cl)cc1
C       3.14307046     -0.72681695     -2.04269968
C       2.89401361      0.66783117     -1.48640267
C       3.17723877      0.76330797      0.01172722
N       2.27658567     -0.05036129      0.80133325
C       1.02519626      0.37562837      1.13751571
O       0.56943532      1.46429617      0.83153074
N       0.31791272     -0.58172905      1.84079458
S      -1.22174747     -0.38620121      2.43045477
O      -1.57829029     -1.67490737      2.99082310
O      -1.28958099      0.81091017      3.23670947
C      -2.20352010     -0.16364257      0.96645747
C      -2.53323381      1.12728506      0.54148143
C      -3.32856794      1.29787705     -0.59363934
C      -3.79963303      0.18126571     -1.28481384
Cl     -4.77916056      0.39325105     -2.68328424
C      -3.48624986     -1.10761658     -0.84975829
C      -2.68904725     -1.28451348      0.28347690
H       2.46900517     -1.46207063     -1.59230541
H       2.97513661     -0.73631502     -3.12433895
H       4.17395470     -1.04471388     -1.85703120
H       3.54209920      1.37736109     -2.01380320
H       1.85846835      0.95874843     -1.69750655
H       3.08213458      1.80582215      0.33558369
H       4.19722741      0.43310952      0.23486248
H       2.56900061     -0.97834723      1.06104233
H       0.70207858     -1.49510326      2.03491562
H      -2.16367232      1.99959932      1.07864947
H      -3.57546096      2.30133766     -0.93116796
H      -3.86479071     -1.97487792     -1.38494095
H      -2.45960272     -2.29041442      0.62771790
