40
CCOC(=O)CNC(=O)COC(=O)c1ccccc1OC(C)=O
C       5.95654618      2.18457017      0.81402820
C       4.63622731      2.55401238      1.46455470
O       3.56774130      2.46081913      0.51058703
C       3.01884073      1.22080416      0.35711355
O       3.36488078      0.21413871      0.96337282
C       1.89484003      1.27779740     -0.66703009
N       1.43661827     -0.05378917     -1.02217755
C       0.54957979     -0.23971180     -2.05521656
O       0.21383442      0.65747047     -2.82465713
C      -0.01930471     -1.65354363     -2.15611498
O      -1.19217342     -1.78353584     -1.34978349
C      -0.95620615     -1.93416357     -0.02462162
O       0.14465025     -2.07529871      0.48555207
C      -2.22520192     -1.95054851      0.73683098
C      -2.26062041     -2.72593464      1.90544146
C      -3.42840838     -2.80052549      2.66867598
C      -4.56857030     -2.10055812      2.27384388
C      -4.54096806     -1.31138889      1.12453983
C      -3.36583207     -1.22046430      0.37232586
O      -3.42491724     -0.39558572     -0.75821535
C      -2.69710203      0.78481794     -0.63688338
C      -2.85673452      1.58778149     -1.89285485
O      -2.03911764      1.13454611      0.33396001
H       5.94743125      1.14714051      0.46605349
H       6.14135510      2.81134923     -0.06459716
H       6.78598938      2.30886479      1.51714881
H       4.43617981      1.93548216      2.34668934
H       4.67176365      3.59448121      1.80355171
H       2.24681121      1.77869981     -1.57484196
H       1.04864124      1.82608487     -0.24260089
H       1.46806530     -0.76521716     -0.28716046
H       0.73652714     -2.40405349     -1.89787872
H      -0.30469071     -1.83434131     -3.19820593
H      -1.37699937     -3.27569506      2.22768052
H      -3.44764268     -3.40402297      3.57343499
H      -5.47653456     -2.16261969      2.86891909
H      -5.42723298     -0.75751275      0.82713489
H      -2.17610639      2.44265398     -1.86162737
H      -3.88421938      1.95082069     -1.97201274
H      -2.59794024      0.97617561     -2.76137355
