44
CCOC(=O)C1=C(C)NC(C)=C(C(=O)OC)C1c1cccc(Cl)c1Cl
C       2.03916977     -3.61933549     -1.52708676
C       2.97906511     -3.00561249     -0.50572680
O       2.54335364     -1.68054374     -0.17458285
C       1.61675925     -1.59556853      0.81138289
O       1.14332744     -2.52210645      1.45014309
C       1.15335259     -0.20054620      0.94067043
C       1.98137307      0.83724156      1.19532795
C       3.46946678      0.71727751      1.39682077
N       1.45408941      2.11362331      1.32302462
C       0.10452489      2.42368939      1.23824013
C      -0.25365292      3.86484525      1.49383129
C      -0.78945344      1.44145925      0.98185805
C      -2.24700808      1.66636264      0.91119095
O      -3.05984851      0.99896140      1.53235937
O      -2.52795666      2.64044729      0.01077778
C      -3.92411446      2.86604873     -0.18001090
C      -0.35110741     -0.00670119      0.80319555
C      -0.91402440     -0.64696739     -0.47862858
C      -1.81697534     -1.72088693     -0.31383627
C      -2.37470489     -2.37778028     -1.40888035
C      -2.04266228     -1.97700202     -2.69724949
C      -1.15379495     -0.91703510     -2.89278137
Cl     -0.79823075     -0.49074135     -4.53398838
C      -0.58593204     -0.24522093     -1.79313531
Cl      0.51239083      1.06731798     -2.07665442
H       1.95744153     -2.97657879     -2.40987802
H       2.39526504     -4.60513925     -1.83894628
H       1.02973933     -3.72629829     -1.11753674
H       3.06563540     -3.63302209      0.38876786
H       3.98215554     -2.91542043     -0.93507797
H       3.78577542      1.31939619      2.25614387
H       3.79505038     -0.30663983      1.59967299
H       3.99895938      1.08156066      0.51060056
H       2.10340214      2.87653632      1.49727471
H      -0.04867811      4.46683101      0.60282247
H       0.34370250      4.26465702      2.32119139
H      -1.30085147      4.00291413      1.77655947
H      -4.40796530      1.96474305     -0.56939656
H      -4.39285587      3.18486542      0.75626360
H      -4.04066052      3.66667135     -0.91558853
H      -0.78398116     -0.54150504      1.66343066
H      -2.09319743     -2.05798511      0.68619184
H      -3.06656368     -3.20251227     -1.25320464
H      -2.47977977     -2.49430029     -3.54795229
