56
CCCCCCCCCCCCCCCCCC(=O)O
C      -7.41419011      1.70481218      0.19097087
C      -6.36603993      1.32924107      1.22652205
C      -5.01412808      2.01153661      1.00441146
C      -4.33479514      1.72093584     -0.33742562
C      -4.03448410      0.23638153     -0.55883726
C      -3.24614546      0.02052455     -1.85302703
C      -3.01792433     -1.45630464     -2.18985903
C      -2.25903328     -2.27268242     -1.13907071
C      -0.85801644     -1.73243872     -0.84192770
C      -0.10839590     -2.64738726      0.13021710
C       1.33655484     -2.20712568      0.38721552
C       1.43953458     -0.85953610      1.10656806
C       2.86238415     -0.52595304      1.56659069
C       3.84318901     -0.32522354      0.40920266
C       5.21774000      0.11645059      0.91823805
C       6.20210016      0.31043201     -0.23945779
C       7.59183996      0.72867867      0.23943521
C       7.64124752      2.15299255      0.72534197
O       6.80511299      3.02441528      0.56341011
O       8.78798173      2.41950448      1.38161549
H      -7.53694382      2.79083168      0.13183592
H      -8.38152541      1.26884671      0.46063754
H      -7.14847908      1.33092956     -0.80216262
H      -6.24572791      0.24065684      1.24797545
H      -6.73727085      1.61726315      2.21761185
H      -5.14600677      3.09691864      1.09660765
H      -4.33835199      1.71441197      1.81611098
H      -3.39377796      2.28470272     -0.36900187
H      -4.94945445      2.10344440     -1.16037724
H      -4.96954223     -0.33221031     -0.61032508
H      -3.46440038     -0.14427074      0.29583001
H      -3.79506479      0.47650722     -2.68677013
H      -2.28559003      0.54533835     -1.79604500
H      -2.47563136     -1.51350356     -3.14196186
H      -3.99053302     -1.93420236     -2.36176715
H      -2.17553170     -3.30281256     -1.50799421
H      -2.84132615     -2.32612554     -0.21200520
H      -0.29151891     -1.64594167     -1.77671342
H      -0.93683437     -0.72918358     -0.41155962
H      -0.65142129     -2.70115348      1.08167933
H      -0.08712141     -3.66521940     -0.27874637
H       1.82493379     -2.97760264      0.99642236
H       1.87366250     -2.16824343     -0.56723911
H       1.07648681     -0.05521115      0.45678512
H       0.78937520     -0.87321226      1.98996436
H       3.22963018     -1.31798413      2.23050668
H       2.82088451      0.39274922      2.16492506
H       3.95310925     -1.25767512     -0.15560423
H       3.44804031      0.42969533     -0.28108954
H       5.11327056      1.04968529      1.48343121
H       5.61084496     -0.63771476      1.61086094
H       6.29457993     -0.63503658     -0.78797198
H       5.80548046      1.05122981     -0.94425323
H       8.29861913      0.64580642     -0.59372892
H       7.92400507      0.06459897      1.04497581
H       8.70459905      3.36443300      1.62852391
