23
O=C(CCCCl)c1ccc(F)cc1
O       1.13595549     -0.26776657      1.30200784
C       0.53340096      0.15556870      0.31726491
C       1.22437709      0.98003267     -0.75658675
C       2.74435488      1.04846854     -0.57244172
C       3.47161684     -0.27629809     -0.79371945
Cl      3.32817740     -0.83231364     -2.48000580
C      -0.92715553     -0.13374817      0.17585454
C      -1.53055939     -0.98869944      1.11286176
C      -2.89175191     -1.28815058      1.02368320
C      -3.64814481     -0.73198582      0.00024224
F      -4.95344405     -1.01702973     -0.08703039
C      -3.06927630      0.11874987     -0.93476742
C      -1.70666707      0.42141142     -0.84919895
H       0.82672956      1.99987980     -0.69401494
H       0.98205644      0.57288227     -1.74259454
H       2.97246731      1.40510345      0.43970357
H       3.14758014      1.79996120     -1.26284904
H       4.53905701     -0.15365328     -0.58663913
H       3.09264551     -1.07193894     -0.14769423
H      -0.94166147     -1.42653653      1.91745359
H      -3.36239919     -1.94912015      1.74485032
H      -3.68344002      0.54187226     -1.72418738
H      -1.28391889      1.09331076     -1.59028253
