28
O=C(O)CCCNC(=O)c1ccccc1
O       4.12657471     -0.00555367     -2.71030383
C       3.01634612      0.15815562     -2.22336343
O       1.88889567     -0.21623025     -2.85871425
C       2.79759474      0.75198943     -0.85552349
C       2.95732541     -0.28873430      0.24904268
C       1.86734597     -1.36000210      0.28698592
N       0.59071178     -0.84708987      0.74990352
C      -0.35407977     -0.32585764     -0.10724367
O      -0.15062672     -0.17953306     -1.30968314
C      -1.66436088      0.05123306      0.48790775
C      -1.78201182      0.47345389      1.81857095
C      -3.03390532      0.82244652      2.33112668
C      -4.16578754      0.75838950      1.51840492
C      -4.05045635      0.35378808      0.18907930
C      -2.80174592      0.00522890     -0.32804316
H       1.05839594     -0.09708946     -2.32885862
H       1.84251647      1.28115385     -0.80846027
H       3.55927777      1.53193466     -0.72806687
H       2.98941421      0.22828867      1.21605319
H       3.92510396     -0.79082089      0.12506323
H       1.73836916     -1.84201920     -0.68707046
H       2.15906376     -2.13882262      1.00040439
H       0.31507389     -1.08409769      1.69439652
H      -0.91143495      0.56485132      2.46115448
H      -3.12713193      1.15454451      3.36256069
H      -5.13894180      1.03333045      1.91884937
H      -4.93190510      0.31282913     -0.44643826
H      -2.71962146     -0.30576685     -1.36772543
