42
CC1C(N)CN1c1c(F)cc2c(=O)c(C(=O)O)cn(C3CC3)c2c1Cl
C       4.29650785      1.52709924      0.85734581
C       3.81044342      0.44798857     -0.08972103
C       4.41174528     -0.95752722      0.13602239
N       5.25045762     -1.36301306     -1.00061746
C       2.96980135     -1.45219566     -0.05614987
N       2.54032032     -0.11852830      0.33445007
C       1.22911020      0.38392127      0.06442702
C       1.03331771      1.52216272     -0.73376164
F       2.07015199      2.17452611     -1.27905440
C      -0.22921135      2.03570380     -0.98465578
C      -1.35158678      1.39358638     -0.46222075
C      -2.67904165      2.00548234     -0.71733372
O      -2.79968374      3.01216469     -1.41295899
C      -3.86737431      1.39667529     -0.09649547
C      -5.23118822      1.95245268     -0.20273263
O      -6.20757105      1.43969290      0.32449530
O      -5.32035418      3.08240108     -0.93666295
C      -3.67276699      0.24842042      0.56360031
N      -2.46493609     -0.41001076      0.73010201
C      -2.55330594     -1.83739413      1.11163344
C      -3.51880481     -2.78873717      0.43608196
C      -2.05076401     -2.94108423      0.20972188
C      -1.24429016      0.21743901      0.31447756
C       0.07015437     -0.22822114      0.62940929
Cl      0.32375893     -1.40496109      1.89561576
H       5.33437688      1.79202340      0.63041379
H       3.69547294      2.43691762      0.76104191
H       4.25469470      1.20450160      1.90354858
H       3.80201513      0.76374988     -1.14096592
H       4.83908897     -1.15442242      1.12483806
H       6.17381506     -0.93046121     -0.99580888
H       4.85314651     -1.16117721     -1.91804661
H       2.65743911     -1.70044748     -1.07757283
H       2.67006603     -2.24360164      0.63310956
H      -0.32064872      2.93570787     -1.58777740
H      -4.46134228      3.38669634     -1.31919762
H      -4.51601978     -0.27114755      1.01828331
H      -2.45231226     -1.97284251      2.18695326
H      -4.11681968     -2.43842423     -0.39678678
H      -4.01720524     -3.52426886      1.05733501
H      -1.54830627     -3.78148039      0.67496592
H      -1.66235086     -2.67936694     -0.76710271
