37
CCCCCC(=O)OC(=O)CCCCC
C       6.23196545     -1.48650097      0.60957738
C       5.76414227     -0.25099383     -0.14292208
C       4.29328629      0.05453585      0.14128193
C       3.82905767      1.30158660     -0.61756033
C       2.36812959      1.64886854     -0.33106957
C       1.38798032      0.67832128     -0.96039976
O       1.66579296     -0.06369985     -1.88921150
O       0.18095614      0.84247263     -0.35448143
C      -0.80328190     -0.04259245     -0.67045985
O      -0.70703143     -1.07160719     -1.32002133
C      -2.08938340      0.44018092     -0.03103023
C      -3.27731636     -0.45589808     -0.37806876
C      -4.56644431      0.05381381      0.26732767
C      -5.75432099     -0.84331123     -0.07951756
C      -7.03825480     -0.33978151      0.56038338
H       6.12817652     -1.35005540      1.69075204
H       7.28582359     -1.68638287      0.39201099
H       5.65164684     -2.36733323      0.31681953
H       6.38546546      0.60389325      0.14828355
H       5.91074593     -0.40785592     -1.21791291
H       3.68143517     -0.80920851     -0.14350777
H       4.15259417      0.20752469      1.21827304
H       4.45255021      2.15265643     -0.31702911
H       3.98127790      1.15981109     -1.69431459
H       2.20414156      1.67443203      0.75238177
H       2.14617800      2.64195998     -0.73785445
H      -2.28412849      1.45958150     -0.38333981
H      -1.94415471      0.45893230      1.05496877
H      -3.40094748     -0.49913988     -1.46743584
H      -3.07679124     -1.48112074     -0.04257660
H      -4.76762472      1.07723619     -0.07207890
H      -4.44144512      0.09326872      1.35631186
H      -5.88615855     -0.88294622     -1.16706319
H      -5.56013600     -1.86692190      0.26139389
H      -7.27864377      0.67078619      0.21498237
H      -6.95079056     -0.31863479      1.65136391
H      -7.87449222     -0.99587746      0.29931544
