34
CCOP(=O)(OCC)O/C(=C\Cl)c1ccc(Cl)cc1Cl
C       4.35599581     -1.65684349     -0.65838644
C       2.85157372     -1.48165333     -0.68493448
O       2.55950034     -0.13506606     -1.01565484
P       1.03574123      0.37657020     -0.87409633
O       0.81424194      1.77265341     -1.37115348
O       0.72237871      0.16516874      0.69404773
C       1.24231973      1.13848734      1.58152446
C       0.89515004      0.73170701      2.99828074
O       0.17364524     -0.76615829     -1.61187403
C      -1.19739611     -0.92412302     -1.62987976
C      -1.78227621     -1.88815525     -2.35049237
Cl     -0.92123141     -3.01688047     -3.31311513
C      -2.02007795     -0.00552003     -0.82837962
C      -2.32138640      1.25863466     -1.35887603
C      -3.09492862      2.16781309     -0.63334890
C      -3.57946367      1.81638437      0.62398281
Cl     -4.52890950      2.93883664      1.51685438
C      -3.30073284      0.56420859      1.16484139
C      -2.52481257     -0.34483071      0.44062723
Cl     -2.20252741     -1.88092339      1.16875379
H       4.80864449     -0.98720983      0.08043602
H       4.62469375     -2.68780653     -0.41182593
H       4.79170831     -1.40060810     -1.62976841
H       2.43051494     -1.73020070      0.29395583
H       2.41209443     -2.14234620     -1.43845286
H       2.32831698      1.20237722      1.46100138
H       0.79976172      2.11292879      1.35249777
H       1.27974220      1.45875852      3.71884234
H       1.31468620     -0.25278370      3.23039164
H      -0.19009814      0.65202963      3.12146108
H      -2.85101097     -2.05588515     -2.39595941
H      -1.93713122      1.55383664     -2.33507507
H      -3.30674974      3.14835417     -1.05342402
H      -3.68197702      0.29824523      2.14719850
