23
CCCCC(C(=O)O)C(=O)O
C       3.21828856     -0.28292455      0.33147010
C       2.08126243     -0.26833989     -0.67787720
C       0.73440032     -0.00383443     -0.00147395
C      -0.40399513      0.01856335     -1.02945460
C      -1.81344787      0.17237633     -0.43396444
C      -2.22908882     -0.92934855      0.50545900
O      -2.98331863     -0.83789830      1.46048004
O      -1.77155305     -2.14643776      0.14287135
C      -2.00641895      1.54769064      0.13885392
O      -2.50330959      2.49418961     -0.45379339
O      -1.51555196      1.71679955      1.37930295
H       4.17054945     -0.47400064     -0.17309496
H       3.06756169     -1.06656112      1.08081998
H       3.29525846      0.67824504      0.84969114
H       2.27818700      0.50408652     -1.43039191
H       2.05298563     -1.23159956     -1.20038936
H       0.78470323      0.95655479      0.52284354
H       0.55108090     -0.77726185      0.75269845
H      -0.36558199     -0.90504812     -1.62125525
H      -0.22255081      0.84122608     -1.73378455
H      -2.52932051      0.10080318     -1.26580169
H      -2.15665761     -2.75293609      0.81098756
H      -1.73348273      2.64565578      1.60553627
