9
[Al+3].[Al+3].[O-2].[O-2].[O-2].[O-2].[O-2].[Zn+2].[Zn+2]
Al      0.00000000      0.00000000      0.00000000
Al      0.00000000      0.00000000      0.00000000
O       0.00000000      0.00000000      0.00000000
O       0.00000000      0.00000000      0.00000000
O       0.00000000      0.00000000      0.00000000
O       0.00000000      0.00000000      0.00000000
O       0.00000000      0.00000000      0.00000000
Zn      0.00000000      0.00000000      0.00000000
Zn      0.00000000      0.00000000      0.00000000
