28
CCC(C)(C)c1ccccc1O
C      -1.68458858      0.33934258      1.92413391
C      -1.65073095     -0.71829583      0.82458813
C      -0.93793502     -0.28479007     -0.49468608
C      -0.96254261     -1.47725819     -1.48501235
C      -1.80556431      0.81911841     -1.15841984
C       0.52877849      0.14290671     -0.25407388
C       0.98542940      1.42577762     -0.62113242
C       2.30868905      1.82947485     -0.40885463
C       3.21880100      0.96017323      0.17696165
C       2.80572692     -0.31393983      0.54946536
C       1.48082432     -0.71327597      0.33495498
O       1.12042190     -1.97694559      0.71487445
H      -2.19359510     -0.06238453      2.80676125
H      -2.23135621      1.23284841      1.61106528
H      -0.67803951      0.63652915      2.23195815
H      -2.68734318     -1.00179463      0.59671644
H      -1.19360142     -1.62298454      1.23908839
H      -1.99178827     -1.75186473     -1.74545935
H      -0.49273427     -2.37696200     -1.07702691
H      -0.43967759     -1.22812688     -2.41623924
H      -1.42695295      1.08292765     -2.15338735
H      -1.84124113      1.73647896     -0.56156874
H      -2.84039584      0.48084859     -1.29105650
H       0.32351436      2.15174710     -1.08462939
H       2.62257881      2.82741842     -0.70479570
H       4.24579499      1.27360542      0.34164521
H       3.52712359     -0.98515111      1.00534800
H       1.89040411     -2.42542317      1.09878119
