14
O=c1nc[nH]c2nc[nH]c12
O      -0.35169642      2.76892592      0.09346682
C      -0.64151633      1.58020942      0.06595027
N      -1.94106120      1.09910004      0.08863117
C      -2.13410291     -0.18362737      0.05551416
N      -1.20828038     -1.19363746     -0.00139271
C       0.05680715     -0.78125340     -0.02515816
N       1.16493788     -1.55539755     -0.08017544
C       2.15782420     -0.68481640     -0.08235265
N       1.70632340      0.61211778     -0.03036995
C       0.34436252      0.54887222      0.00668327
H      -3.16806941     -0.56796006      0.07351343
H      -1.46541669     -2.17081375     -0.02347252
H       3.21242526     -0.92618341     -0.11979044
H       2.26746293      1.45446402     -0.02104725
