27
O.O.O.O.O.O.O=[N+]([O-])[O-].O=[N+]([O-])[O-].[Co+2]
O      -0.00105257      0.39480591     -0.00000000
O      -0.00113868      0.39692583     -0.00000000
O      -0.00059779      0.35877416     -0.00000000
O      -0.00184964      0.38178238     -0.00000000
O      -0.00387060      0.38208047     -0.00000000
O      -0.00593815      0.39604742     -0.00000000
O      -0.23182588      1.25050859     -0.00821466
N       0.00460090      0.02355218      0.00015533
O      -1.06873164     -0.82572550     -0.03682106
O       1.29595662     -0.44833526      0.04488038
O      -0.14143973      1.27692642     -0.00873090
N      -0.00320100      0.04610051     -0.00020557
O      -1.09900799     -0.78780955     -0.06310745
O       1.24364872     -0.53521737      0.07204392
Co      0.00000000      0.00000000      0.00000000
H      -0.79373665     -0.19784197     -0.00000000
H       0.79478921     -0.19696394      0.00000000
H       0.79697141     -0.19808558      0.00000000
H      -0.79583273     -0.19884025     -0.00000000
H       0.82746663     -0.17920408      0.00000000
H      -0.82686884     -0.17957007     -0.00000000
H      -0.80523863     -0.19157646     -0.00000000
H       0.80708827     -0.19020592      0.00000000
H      -0.80143336     -0.19245025     -0.00000000
H       0.80530395     -0.18963022      0.00000000
H       0.79531972     -0.19584771      0.00000000
H      -0.78938157     -0.20019972     -0.00000000
