32
CC(=O)OCSc1ncnc2c1ncn2COC(C)=O
C       7.29335424      0.84273550     -1.31002583
C       5.99163700      1.23495867     -0.68116013
O       5.82024669      2.25161344     -0.02391279
O       5.04444024      0.30061239     -0.95032065
C       3.76596151      0.60421623     -0.38154793
S       2.57668969     -0.70417562     -0.80098481
C       1.13501492     -0.07494455      0.00206238
N       1.17921638      1.08645617      0.70359472
C       0.04514563      1.51240721      1.29582661
N      -1.16628639      0.92608873      1.28793163
C      -1.15120572     -0.21438798      0.57874176
C      -0.07010414     -0.78177188     -0.08251783
N      -0.44863211     -1.96249843     -0.69361826
C      -1.72656250     -2.10203125     -0.41283148
N      -2.19309877     -1.06866117      0.35274444
C      -3.54350974     -0.93125777      0.85241224
O      -4.39578303     -0.69178722     -0.26746226
C      -5.70281738     -0.58156221      0.08411597
C      -6.54369342     -0.30000511     -1.12260650
O      -6.13515222     -0.70241601      1.22081648
H       8.04898358      1.59963640     -1.08119432
H       7.62714980     -0.11563792     -0.90462877
H       7.17770208      0.78297119     -2.39506672
H       3.86252585      0.66400349      0.70815559
H       3.40847152      1.55652946     -0.78864335
H       0.11954922      2.44528026      1.84827025
H      -2.35608171     -2.92165914     -0.73686015
H      -3.80329132     -1.87110019      1.35307026
H      -3.58219849     -0.09387163      1.55689003
H      -6.21899241      0.63238225     -1.59140315
H      -7.58856711     -0.19036892     -0.81836976
H      -6.47011186     -1.13175439     -1.82767842
