11
CC(C)I
C       1.08320384     -0.53137138     -0.46460694
C       0.20496697      0.38228814      0.38502435
C      -1.26869341      0.01123626      0.24866908
I       0.49634014      2.43469187     -0.21554224
H       0.96068799     -1.57594181     -0.15842324
H       0.83061946     -0.46300163     -1.52875256
H       2.14295837     -0.27624165     -0.35481933
H       0.50086670      0.28361199      1.43576566
H      -1.61623526      0.10151283     -0.78667833
H      -1.43595096     -1.02301168      0.56842255
H      -1.89876385      0.65622707      0.87094100
