28
CNc1ccc(S(=O)(=O)N(C)C)cc1
C       4.20481302      0.61516548      1.44949695
N       3.28601386     -0.48872659      1.23232075
C       2.14494517     -0.29220730      0.44781810
C       1.46255615     -1.42327913     -0.02959459
C       0.27625961     -1.30684730     -0.75996266
C      -0.26807740     -0.04309569     -0.98385940
S      -1.76747770      0.12061551     -1.93003102
O      -1.77348938      1.44983968     -2.50473952
O      -1.87993474     -1.05402210     -2.76946077
N      -2.98595919      0.04712152     -0.74309837
C      -3.08649904      1.19095647      0.17923428
C      -3.19116868     -1.25156341     -0.07933514
C       0.38139788      1.09683156     -0.51001747
C       1.56815922      0.96431893      0.21980242
H       5.07731934      0.25160023      2.00183299
H       4.55907920      1.03215273      0.50097627
H       3.74590136      1.40461514      2.05306152
H       3.76630828     -1.35205884      0.98814839
H       1.86037947     -2.41746145      0.16254314
H      -0.21161446     -2.20086797     -1.14087811
H      -2.30898847      1.14811591      0.94697140
H      -4.06279567      1.17728185      0.67503565
H      -3.01828244      2.14102860     -0.35742305
H      -2.42044962     -1.43553508      0.67426609
H      -4.16773273     -1.25963249      0.41606541
H      -3.19762837     -2.07092972     -0.80313263
H      -0.02630423      2.08782466     -0.69615142
H       2.03326956      1.86875879      0.60074917
