18
FC(F)(F)c1nc2c(Cl)c(Cl)ccc2[nH]1
F       3.82627520      0.34559433      1.62271791
C       3.27364814     -0.03516280      0.44461742
F       3.86903437      0.68338140     -0.53899980
F       3.64005832     -1.33388718      0.24892827
C       1.78679346      0.10166318      0.43658947
N       1.04660839      1.18736559      0.59157046
C      -0.26942020      0.77976785      0.50186543
C      -1.47747750      1.49592699      0.58985849
Cl     -1.31459561      3.17884404      0.85599821
C      -2.69400599      0.81926333      0.46008658
Cl     -4.21099767      1.64001839      0.55830827
C      -2.71096340     -0.56302185      0.24380138
C      -1.52483403     -1.30321436      0.15161933
C      -0.32795426     -0.59565600      0.28582747
N       0.98292214     -0.99836807      0.24883478
H      -3.66304362     -1.08241635      0.14383122
H      -1.54572640     -2.37568244     -0.01634123
H       1.31367867     -1.94441604      0.10757446
