34
CCCCCCOC(=O)c1ccc(O)c(I)c1
C       5.80051650     -0.31673542     -0.21313266
C       5.05467678     -1.50901861      0.36583864
C       3.57467373     -1.55044145     -0.02050050
C       2.76322608     -0.39120206      0.56198785
C       1.27775145     -0.53747743      0.23593392
C       0.45915260      0.61424233      0.80883673
O      -0.91463381      0.39773878      0.45820402
C      -1.76167039      1.35591388      0.90846431
O      -1.44736009      2.33960420      1.55900710
C      -3.16063872      1.05187104      0.50033936
C      -4.16941074      1.94674805      0.88627244
C      -5.49793030      1.70832539      0.52941040
C      -5.82170889      0.57710029     -0.21276075
O      -7.14005490      0.40582894     -0.52700572
C      -4.82595853     -0.32146230     -0.60301669
I      -5.28378071     -2.02675893     -1.71701436
C      -3.49426795     -0.08719179     -0.24818422
H       5.44048587      0.62578797      0.20938953
H       6.86828342     -0.39502626      0.01559148
H       5.68963225     -0.27412141     -1.30120988
H       5.15575310     -1.50759410      1.45736557
H       5.53316319     -2.42725988      0.00474646
H       3.15402371     -2.49819652      0.33795698
H       3.48002250     -1.55639463     -1.11324847
H       3.12612605      0.56102643      0.15924181
H       2.89838965     -0.35763523      1.64974683
H       1.12993981     -0.58241941     -0.85039573
H       0.89315549     -1.48635117      0.63048556
H       0.79893559      1.56638202      0.38470406
H       0.55801461      0.64105563      1.90035729
H      -3.92453574      2.83459449      1.46729647
H      -6.27748539      2.40377899      0.83004042
H      -7.21642672     -0.41757367     -1.04188442
H      -2.72005948     -0.78713817     -0.55241012
