36
CC(C)(C)C(=O)C(Oc1ccc(Cl)cc1)n1cncn1
C      -3.45250814     -0.00624779      0.43230607
C      -2.48518429     -0.91069842     -0.34187015
C      -3.25194176     -1.57449867     -1.50410144
C      -1.96812078     -2.02821541      0.57211467
C      -1.35673673     -0.03842992     -0.94690480
O      -1.53569725      0.52653907     -2.03455390
C      -0.05578595      0.17475797     -0.16069233
O       0.96014856      0.63101136     -1.06484169
C       2.26640157      0.34398322     -0.78785485
C       2.78239714     -0.05195635      0.44706354
C       4.15297124     -0.30122371      0.58639675
C       5.00605313     -0.14830854     -0.50445763
Cl      6.68820961     -0.45733524     -0.32611640
C       4.50195671      0.25831580     -1.73574334
C       3.13450188      0.50756525     -1.87241537
N      -0.26973939      1.18698985      0.85781996
C      -0.48499774      2.51951638      0.68071165
N      -0.64748431      3.09466260      1.84978791
C      -0.50530214      2.06067253      2.72887825
N      -0.27794256      0.86700932      2.17199236
H      -2.98322494      0.41964179      1.32379028
H      -4.33672884     -0.56286042      0.76289931
H      -3.79478313      0.83123721     -0.18637604
H      -4.05186329     -2.22622305     -1.13462895
H      -2.57994277     -2.18201302     -2.12145371
H      -3.71503974     -0.82861750     -2.16051900
H      -2.78255449     -2.69079294      0.88735595
H      -1.21804968     -2.64254178      0.06133165
H      -1.51114941     -1.63186030      1.48428352
H       0.24182893     -0.77017243      0.30082921
H       2.16326091     -0.16016321      1.33237805
H       4.54795112     -0.60609390      1.55251562
H       5.16212492      0.38635608     -2.58925575
H       2.74285063      0.82976982     -2.83537012
H      -0.51298179      2.99881961     -0.28950296
H      -0.57289724      2.18140475      3.80291060
