63
CCCCCCCCCCCCCCCC(=O)N1C(=O)CC[C@H]1C(=O)[O-].[Na+]
C      -5.14279144     -5.78034484     -0.06686028
C      -5.43538521     -4.29965124      0.12449723
C      -5.70991441     -3.60803497     -1.21138032
C      -6.12466745     -2.14094337     -1.06400041
C      -5.11327333     -1.22911087     -0.36093194
C      -3.74295797     -1.19756208     -1.04219538
C      -2.80582967     -0.12807915     -0.46800516
C      -2.47051450     -0.34486241      1.01030690
C      -1.35520859      0.57464641      1.52090261
C      -1.73029735      2.05950603      1.47889289
C      -0.68123319      2.96990580      2.12852364
C       0.33406112      3.58088437      1.15534732
C       1.28707512      2.56631214      0.52452964
C       2.36821575      3.26388370     -0.30979780
C       3.38252611      2.27265369     -0.88703646
C       4.43694025      1.83267018      0.12041913
O       4.39075806      2.19223673      1.29911485
N       5.42117484      0.97677650     -0.35978045
C       5.55383633      0.40887352     -1.63702757
O       4.74857007      0.41733512     -2.55791393
C       6.87389262     -0.32284415     -1.69029544
C       7.22932432     -0.49666734     -0.22080858
C       6.62691900      0.73614228      0.43024599
C       7.69823489      1.85578929      0.34452647
O       7.58588495      2.64731312     -0.63698485
O       8.58921771      1.80719326      1.24029475
Na      0.00000000      0.00000000      0.00000000
H      -4.27423581     -5.92721709     -0.71759235
H      -4.92972506     -6.25171651      0.89836535
H      -5.99850836     -6.29525071     -0.51493849
H      -6.30061809     -4.18697745      0.78802949
H      -4.57800596     -3.83624734      0.62372428
H      -4.82965478     -3.68542858     -1.86016987
H      -6.51949559     -4.13789770     -1.72948478
H      -6.33291723     -1.73740657     -2.06406045
H      -7.07163901     -2.09465714     -0.51004786
H      -5.52941676     -0.21443361     -0.34188941
H      -5.00882781     -1.54052154      0.68374698
H      -3.25791822     -2.17751129     -0.96027806
H      -3.87725648     -0.99728842     -2.11259781
H      -1.87814023     -0.13669645     -1.05127472
H      -3.26205099      0.85674071     -0.61033790
H      -3.36533961     -0.19706714      1.62681928
H      -2.15011322     -1.38444527      1.15774615
H      -1.13060801      0.29125826      2.55653272
H      -0.44603675      0.38595267      0.94315439
H      -2.67140961      2.18306325      2.02983787
H      -1.92372039      2.38679527      0.45140162
H      -1.21503958      3.80872508      2.59587755
H      -0.16068851      2.44890431      2.94163778
H       0.92234653      4.32346472      1.70922385
H      -0.19622977      4.12902322      0.36641908
H       1.74623018      1.95707130      1.31177884
H       0.72763458      1.89112175     -0.13205617
H       2.87942451      4.02617103      0.29067217
H       1.88086139      3.78764433     -1.14144668
H       3.90548717      2.76644169     -1.71428245
H       2.85765457      1.39224991     -1.27206017
H       6.76169590     -1.28931630     -2.18823262
H       7.60482617      0.29082323     -2.22520919
H       8.30644954     -0.61614016     -0.07002331
H       6.73417446     -1.39598281      0.16755090
H       6.36625279      0.56272961      1.47964857
