20
O=C(O)c1ccc2ncccc2c1
O       3.21302262     -0.81532859     -1.92945888
C       3.00153037     -0.53646417     -0.76394949
O       4.00797252     -0.38292165      0.11366465
C       1.66751637     -0.33064362     -0.15117172
C       1.50883156     -0.01186682      1.19860469
C       0.22475959      0.17176566      1.72560385
C      -0.91355773      0.04593543      0.94052276
N      -2.12281034      0.23251632      1.49603045
C      -3.21088189      0.10288459      0.70501069
C      -3.15413344     -0.20981212     -0.63979600
C      -1.90267270     -0.40222905     -1.21175820
C      -0.75064461     -0.27653671     -0.42439709
C       0.53560434     -0.46273952     -0.96209338
H       4.81443181     -0.54488159     -0.41963805
H       2.37021282      0.09726176      1.85304407
H       0.10921346      0.42002322      2.77847329
H      -4.16345722      0.26360019      1.20221334
H      -4.06037357     -0.30138424     -1.22748310
H      -1.83069489     -0.64916883     -2.26806027
H       0.65613094     -0.71133001     -2.01536162
