25
CC1=Nc2ccccc2N=C(C)C1
C      -2.52830102      1.92871308      0.12853382
C      -1.29191733      1.09695493     -0.09157286
N      -0.14728977      1.58657203      0.26637405
C       1.04246023      0.84779171      0.08262010
C       2.16206647      1.59697977     -0.31276377
C       3.40769857      0.99936869     -0.50800257
C       3.55631304     -0.36544586     -0.29715302
C       2.45851733     -1.12550435      0.10783040
C       1.19417169     -0.54546429      0.29786235
N       0.18103516     -1.42863166      0.73218429
C      -1.02870760     -1.32025062      0.28185164
C      -2.06903917     -2.28894602      0.78010000
C      -1.46623344     -0.26751338     -0.69816051
H      -2.27139954      2.89739372      0.56572188
H      -3.03050179      2.09036776     -0.82905589
H      -3.20398636      1.39836748      0.80503421
H       2.05328949      2.66854113     -0.46391907
H       4.25800539      1.60302156     -0.81347598
H       4.52400286     -0.83979326     -0.43608736
H       2.58245660     -2.19111053      0.28684495
H      -2.49465104     -2.83070224     -0.06882358
H      -1.62853691     -3.00637416      1.47775931
H      -2.86273801     -1.73545041      1.28917166
H      -0.87995914     -0.34600584     -1.61948547
H      -2.51675570     -0.42287923     -0.96338855
