47
CCCNC(=O)c1nnc2c(-c3ccc(C)cc3C)cccc2c1N
C      -5.27565465      2.60333767     -1.28004169
C      -5.85467178      1.69945056     -0.20094654
C      -5.00062021      1.67278591      1.06489311
N      -3.69750933      1.08741115      0.84256935
C      -3.48166243     -0.27795256      0.82621609
O      -4.36003397     -1.10163529      1.06856831
C      -2.07872324     -0.69722087      0.50056404
N      -1.19425998      0.31945110      0.40678160
N       0.11880263      0.04372227      0.14501429
C       0.55557898     -1.21628627     -0.05054118
C       1.91007149     -1.46611549     -0.34789424
C       2.89293532     -0.36805434     -0.43555935
C       3.16541734      0.20429796     -1.69072248
C       4.09499377      1.23683749     -1.82852142
C       4.78444978      1.71695436     -0.71398171
C       5.75441698      2.85288181     -0.85005675
C       4.51086461      1.16513013      0.54354597
C       3.57998410      0.12183659      0.69660934
C       3.32245497     -0.43005724      2.07362143
C       2.35580802     -2.77921515     -0.58393648
C       1.47170802     -3.84500110     -0.52938437
C       0.13448683     -3.60733605     -0.22749981
C      -0.34920754     -2.30230625      0.03083894
C      -1.70627394     -2.03923746      0.35914231
N      -2.66369119     -3.08940696      0.36066433
H      -4.29890586      2.24449747     -1.61916161
H      -5.15804055      3.62756458     -0.91206811
H      -5.94296143      2.62943122     -2.14737287
H      -5.96883927      0.68651237     -0.60408452
H      -6.85752778      2.05878874      0.05740891
H      -4.84379015      2.68601477      1.44920382
H      -5.51490172      1.09284390      1.83921222
H      -2.91394247      1.68668239      0.59623321
H       2.63973228     -0.15056752     -2.57526722
H       4.27157535      1.66471455     -2.81249330
H       6.55710654      2.77119300     -0.10962484
H       5.23646170      3.80631356     -0.70777350
H       6.22440909      2.84982244     -1.83917751
H       5.02854268      1.55548801      1.41820631
H       2.29878939     -0.20486240      2.38864836
H       4.00049439      0.00776280      2.81411297
H       3.48241592     -1.51276538      2.09098345
H       3.40309921     -2.96331981     -0.81836709
H       1.81890449     -4.85643533     -0.72489892
H      -0.53827731     -4.46174938     -0.21024902
H      -3.56831993     -2.78167484      0.74466657
H      -2.34568916     -3.94052715      0.81119810
