17
c1ccc(C2CO2)cc1
C      -2.46365354      0.13304529      0.54350587
C      -1.66063608      1.26950013      0.51221067
C      -0.33767410      1.17812287      0.07091808
C       0.21288855     -0.04613577     -0.34499266
C       1.63523466     -0.13250030     -0.83090367
C       2.77384927     -0.02702361      0.15673884
O       2.41426241     -1.27772363     -0.43573941
C      -0.62096241     -1.17594512     -0.30714177
C      -1.94429423     -1.09130730      0.13335293
H      -3.49248093      0.20093631      0.88671691
H      -2.06212058      2.22804135      0.83027517
H       0.27460761      2.07723734      0.05093065
H       1.81926819      0.24203256     -1.83363658
H       2.54903481      0.10868890      1.20730708
H       3.69514939      0.43621750     -0.17211320
H      -0.22693044     -2.14044799     -0.62305577
H      -2.56554258     -1.98273852      0.15562688
