25
COc1ccc(C=O)c(C(=O)O)c1OC
C      -3.49790548     -0.65673908     -0.06891825
O      -2.38256336      0.14803369      0.29194251
C      -1.13228062     -0.32979803      0.00152727
C      -0.88357248     -1.48802556     -0.74010017
C       0.42763765     -1.92517543     -0.95400337
C       1.51191494     -1.21106886     -0.42852272
C       2.87803340     -1.71752901     -0.69072523
O       3.06304906     -2.72213008     -1.37042658
C       1.27446337     -0.04122679      0.29927695
C       2.39445951      0.71360565      0.87229648
O       3.21298453      0.28319686      1.66049059
O       2.48320846      1.93997760      0.33069812
C      -0.04199536      0.40655952      0.50374797
O      -0.23570551      1.51920882      1.29031049
C      -0.77957984      2.60807474      0.54190240
H      -4.40094796     -0.15938081      0.29788871
H      -3.58411077     -0.74186647     -1.15697462
H      -3.44571483     -1.64313688      0.40375288
H      -1.68764020     -2.08337120     -1.16214616
H       0.59779442     -2.83403815     -1.53087130
H       3.73318644     -1.16497309     -0.27329889
H       3.24693227      2.35524399      0.78414799
H      -0.42312099      3.53596411      0.99962922
H      -1.87153513      2.60398703      0.60434197
H      -0.45699151      2.60460741     -0.50596626
