31
COP(=O)(Oc1ccccc1)Oc1ccccc1
C       0.28979779     -3.63729715      0.59831505
O       0.66463826     -2.43822613     -0.04727783
P       0.01419602     -1.07566119      0.53265272
O       0.15455784     -0.92237017      2.01956040
O      -1.50158483     -1.15626659     -0.01035268
C      -2.43321786     -0.16875798      0.13948093
C      -3.64290161     -0.36669590     -0.52862869
C      -4.65902949      0.58545570     -0.44084236
C      -4.46696049      1.73752507      0.31880723
C      -3.26070725      1.93423721      0.99008448
C      -2.24225443      0.98143636      0.90237939
O       0.68339772      0.07706622     -0.37048216
C       1.99647737      0.44734308     -0.32361005
C       2.93246107     -0.08454567      0.56036553
C       4.25483240      0.36626128      0.52725421
C       4.64059986      1.34626890     -0.38665918
C       3.70398174      1.87931134     -1.26970045
C       2.38346043      1.42999340     -1.23667733
H       0.73408198     -4.47882713      0.06095383
H      -0.79772956     -3.74975826      0.59359401
H       0.65991625     -3.64054999      1.62697681
H      -3.79614667     -1.26407237     -1.12241334
H      -5.59859725      0.42784803     -0.96376212
H      -5.25690806      2.48076983      0.39060440
H      -3.11217328      2.83068827      1.58732543
H      -1.32059029      1.16492652      1.44663226
H       2.66686852     -0.84479121      1.28840741
H       4.98458637     -0.04776932      1.21874174
H       5.66998070      1.69462126     -0.40882495
H       4.00024516      2.64394056     -1.98281787
H       1.65472158      1.84789605     -1.92654868
