33
CC(C)CCCCCOC(=O)CS
C      -3.31777147      0.85965635      1.18042000
C      -3.51374067     -0.18633998      0.08204963
C      -4.87593354      0.01601117     -0.58637669
C      -2.39952053     -0.14331966     -0.98052566
C      -1.00827559     -0.45711541     -0.41966258
C       0.03143815     -0.54890404     -1.53989184
C       1.42103521     -0.94872535     -1.04317925
C       2.07916442      0.10022622     -0.15262520
O       3.40628374     -0.35284507      0.15587049
C       4.12401365      0.50408330      0.94042368
O       3.69776195      1.56117392      1.38708341
C       5.48971749     -0.08725505      1.21493054
S       6.67669297      1.18143993      1.74537535
H      -4.16303575      0.85448646      1.87690178
H      -3.23354427      1.86704535      0.75888263
H      -2.41596245      0.65763944      1.76656483
H      -3.51367575     -1.17925714      0.54980626
H      -5.68502118     -0.06313795      0.14769575
H      -4.94381739      1.00128547     -1.06064829
H      -5.04971699     -0.74392952     -1.35568721
H      -2.38273155      0.84249043     -1.46279904
H      -2.63587944     -0.87297560     -1.76525545
H      -0.71441102      0.32489747      0.28728178
H      -1.03840033     -1.40498405      0.13065859
H      -0.29716024     -1.29571817     -2.27349553
H       0.09160210      0.40891809     -2.07061316
H       1.37134280     -1.90497373     -0.50742907
H       2.06870009     -1.13291565     -1.90987939
H       1.51856036      0.22188079      0.78016535
H       2.13520599      1.06018527     -0.67887553
H       5.39022531     -0.83887745      2.00315232
H       5.88073092     -0.55667798      0.30788020
H       5.80612299      1.88313491      2.49180129
