22
Clc1ccc(Cl)c(-c2cc(Cl)c(Cl)c(Cl)c2)c1
Cl      3.55906885      1.18344680     -2.65070780
C       2.80956519      0.50930567     -1.25724783
C       3.59494585     -0.03879776     -0.24748919
C       2.98392461     -0.58559021      0.88108757
C       1.58916959     -0.58152692      0.99704134
Cl      0.90374429     -1.29209138      2.41791276
C       0.78177638     -0.02765878     -0.01667010
C      -0.68533049      0.00238399      0.06055716
C      -1.45926651     -0.91281172     -0.66519523
C      -2.85817337     -0.88733137     -0.59395281
Cl     -3.71324844     -2.06494587     -1.53101294
C      -3.51322771      0.05958457      0.20531530
Cl     -5.24571654      0.09486023      0.29312644
C      -2.74278607      0.97911283      0.93001981
Cl     -3.45008859      2.19116197      1.94315177
C      -1.34424532      0.94993864      0.85549253
C       1.41799943      0.51672999     -1.14810548
H       4.67883890     -0.04515830     -0.33215210
H       3.59997497     -1.01628154      1.66733786
H      -0.96783178     -1.65982613     -1.28770667
H      -0.76189760      1.67167624      1.42744654
H       0.82280437      0.95381906     -1.94824893
