19
CC(C)(CO)CO
C      -0.37003248      1.75409974     -0.15410930
C      -0.13217925      0.23575771     -0.10320035
C      -0.18122048     -0.32778593     -1.53588807
C      -1.23804240     -0.41778960      0.75568676
O      -1.15352607     -1.83781137      0.76818274
C       1.25922070     -0.02697839      0.51220537
O       1.49610895     -1.42493289      0.66083082
H      -0.35059050      2.19143202      0.85046304
H       0.39946696      2.25594087     -0.75149856
H      -1.34313667      1.98793411     -0.60043611
H       0.57158055      0.15155857     -2.17203591
H       0.00698856     -1.40631329     -1.56047542
H      -1.16162995     -0.15179512     -1.99287335
H      -1.18023750     -0.06950162      1.79303758
H      -2.23149185     -0.15457625      0.37628256
H      -0.19721419     -2.05672715      0.80796943
H       1.33822982      0.43177543      1.50409043
H       2.05032551      0.38954951     -0.12152556
H       2.41738028     -1.52383636      0.96329392
