21
CCCC(C)(C)O
C       2.73983327     -0.63282068      0.47685512
C       1.57637294      0.08898292     -0.18745334
C       0.23023001     -0.47061509      0.28707322
C      -0.99974005      0.15052899     -0.40721007
C      -1.10204346      1.65859477     -0.17463170
C      -2.27814330     -0.53513597      0.08604313
O      -0.90557315     -0.05940769     -1.81762766
H       2.72921241     -1.70041225      0.23509209
H       3.69106797     -0.21615288      0.13113669
H       2.69757369     -0.52583950      1.56548066
H       1.66889612     -0.01386206     -1.27429720
H       1.64911372      1.15576740      0.04872788
H       0.23221829     -1.55249003      0.09756669
H       0.14632808     -0.33792690      1.37331014
H      -0.27285802      2.19511141     -0.64769075
H      -1.11619542      1.90168230      0.89266918
H      -2.01472745      2.05993415     -0.63083588
H      -2.42557303     -0.38768159      1.16088916
H      -3.15741854     -0.14906565     -0.44233731
H      -2.24724503     -1.61216148     -0.11490276
H      -0.84132904     -1.01703017     -1.97436805
