51
CC12CCC3C(CCC4CC5SC5CC43C)C1CCC2O
C      -2.85594802      1.33008290     -1.63071713
C      -2.68943214      0.14078172     -0.66914043
C      -1.93578446     -1.01098478     -1.37353363
C      -0.44904295     -0.72148065     -1.58116255
C       0.26914994     -0.39002804     -0.25689696
C      -0.44765653      0.78192208      0.46447522
C       0.21144522      1.09469860      1.81529543
C       1.70570325      1.35345733      1.67919577
C       2.41683610      0.17857738      0.99418217
C       3.93540778      0.43416268      0.96894763
C       4.70672489     -0.54400768      0.14176931
S       4.70066420     -2.21112201      0.56035359
C       3.99859855     -1.44121549     -0.83163969
C       2.49865592     -1.44850822     -0.93892882
C       1.82214721     -0.14488259     -0.41652282
C       2.10994518      0.99212858     -1.43000480
C      -1.96813895      0.55760033      0.63079342
C      -2.37440967     -0.52481228      1.64762756
C      -3.71496624     -1.09376768      1.16913690
C      -4.05011635     -0.35693939     -0.12858582
O      -4.90695585      0.73944280      0.18346198
H      -3.34273734      2.18242902     -1.14436363
H      -3.46798149      1.04660058     -2.49415800
H      -1.89541708      1.69257593     -2.00859234
H      -2.02081945     -1.94238777     -0.80032014
H      -2.40125146     -1.21851864     -2.34555107
H       0.00149857     -1.60478427     -2.04620852
H      -0.34052572      0.09771360     -2.29825386
H       0.16378196     -1.27713529      0.38434148
H      -0.33804115      1.67710370     -0.16174792
H      -0.26514602      1.97278486      2.26752518
H       0.06553859      0.26201841      2.51383732
H       2.12880969      1.50946805      2.67930876
H       1.87096185      2.28475934      1.12501651
H       2.24816096     -0.70514405      1.62825590
H       4.13025339      1.43923506      0.57338998
H       4.32748612      0.43948507      1.99426600
H       5.67800328     -0.15119546     -0.13525367
H       4.48500468     -1.66951731     -1.77186831
H       2.24273937     -1.60067333     -1.99502293
H       2.09019723     -2.32017771     -0.40997456
H       1.63283314      1.93369984     -1.14609192
H       3.18072562      1.19350210     -1.53240951
H       1.75599466      0.73379208     -2.43329376
H      -2.40099501      1.50489158      0.98644529
H      -1.64031936     -1.33437254      1.71281007
H      -2.46903797     -0.09727958      2.65206923
H      -4.48729322     -0.96867401      1.93538863
H      -3.60270459     -2.16766549      0.98123242
H      -4.57507764     -0.99885394     -0.84378228
H      -5.73746866      0.37121458      0.53044778
