24
CC(C)c1ccc(C(=O)O)cc1
C      -2.62634283     -1.26307519      0.40954274
C      -2.04425569      0.15049992      0.33211174
C      -2.68579686      0.94302588     -0.80952887
C      -0.53007182      0.12490399      0.21194505
C       0.11171710     -0.46554629     -0.88786577
C       1.50693560     -0.47894316     -0.98015448
C       2.28248192      0.09979956      0.02934634
C       3.76412406      0.11086026     -0.02289619
O       4.50454570      0.59337189      0.81417433
O       4.25387912     -0.48491541     -1.12492915
C       1.65255628      0.69069313      1.12938083
C       0.25774898      0.70262034      1.21898952
H      -2.45573502     -1.82793599     -0.51339245
H      -2.17627895     -1.82710723      1.23412039
H      -3.70766237     -1.22500407      0.58048821
H      -2.31141764      0.66016050      1.26745202
H      -2.27831470      1.95900901     -0.85805260
H      -2.51764159      0.46920572     -1.78277211
H      -3.76824117      1.02282475     -0.66164280
H      -0.46955462     -0.92231596     -1.68611197
H       1.97633245     -0.94351870     -1.84376780
H       5.22492943     -0.40181327     -1.02189748
H       2.24436572      1.14459581      1.92192547
H      -0.20830309      1.16860453      2.08498877
