28
CC1CCC2C(C)C(=O)OCC12
C      -3.07485291     -0.20781969      0.67404540
C      -1.75832894      0.30621326      0.11369754
C      -1.63538746      0.10530926     -1.39430368
C      -0.14674482      0.31153191     -1.63442202
C       0.52927057     -0.39834423     -0.45398094
C       1.83907459      0.25683502     -0.00044216
C       2.93546462      0.09142966     -1.05307317
C       2.26298599     -0.34732858      1.33130046
O       3.39938094     -0.73622696      1.57281526
O       1.28427569     -0.40186310      2.27613220
C      -0.00022907      0.15915866      1.96508986
C      -0.53001817     -0.43098489      0.66707476
H      -3.91889485      0.32543742      0.22450875
H      -3.11970649     -0.06000853      1.75777127
H      -3.20664391     -1.27626281      0.47283165
H      -1.67989846      1.37975991      0.33228107
H      -1.93132509     -0.90965610     -1.68601176
H      -2.24441812      0.81707352     -1.95969621
H       0.17114363     -0.09870937     -2.59792997
H       0.08331858      1.38390324     -1.63285203
H       0.73189054     -1.43896943     -0.74631565
H       1.69988003      1.33279479      0.16665423
H       3.14727353     -0.96633329     -1.24472608
H       2.65066608      0.56063059     -2.00001270
H       3.86870142      0.55858268     -0.71958404
H      -0.67531236     -0.07948074      2.79356612
H       0.09295809      1.25092225      1.92863170
H      -0.77452365     -1.48759448      0.84695011
