29
[S-]c1nc2ccccc2s1.[S-]c1nc2ccccc2s1.[Zn+2]
S       4.44369796     -0.03798404     -0.09862452
C       2.74238861     -0.14214494     -0.03944596
N       1.95941384      0.90170415     -0.20921915
C       0.63203102      0.53025306     -0.11068382
C      -0.47824491      1.39111021     -0.23966877
C      -1.77605808      0.88332167     -0.11723581
C      -1.97987865     -0.47034320      0.13186875
C      -0.89614219     -1.34505036      0.26398144
C       0.40298014     -0.82182685      0.13872953
S       1.91660105     -1.62967851      0.24857482
S       4.40725950     -0.56368423     -0.12625173
C       2.73310683     -0.23808087     -0.12609680
N       1.84117203     -1.09802669      0.31711742
C       0.56725850     -0.57559956      0.19946029
C      -0.62862522     -1.22219000      0.57656681
C      -1.85807375     -0.57765072      0.40283024
C      -1.90943759      0.70182004     -0.14152344
C      -0.73830901      1.36479675     -0.52358692
C       0.49071846      0.70580360     -0.34362120
S       2.08035880      1.24901682     -0.70927557
Zn      0.00000000      0.00000000      0.00000000
H      -0.30202584      2.44362399     -0.43377367
H      -2.62435823      1.55426937     -0.21817016
H      -2.99177649     -0.85593782      0.22546637
H      -1.04862823     -2.40131674      0.45820093
H      -0.57110521     -2.21940738      0.99937190
H      -2.77325347     -1.08389580      0.69631720
H      -2.86918017      1.19481414     -0.27279458
H      -0.77188969      2.36228391     -0.94851364
