35
COc1ccc(N)cc1NS(=O)(=O)c1ccc(N)cc1
C       0.89416595     -0.14549900     -2.70867345
O       1.23773378      0.73041054     -1.63967577
C       1.69459220      0.13239710     -0.49117938
C       2.18560372     -1.16882590     -0.40345576
C       2.61914089     -1.67099924      0.82976611
C       2.61100918     -0.87429665      1.97799321
N       2.92270437     -1.43312299      3.22200687
C       2.07495322      0.41175598      1.89702911
C       1.64667366      0.92196903      0.66963750
N       1.07714989      2.23642535      0.59243270
S      -0.46230312      2.46369401      1.26399331
O      -0.91760346      3.76141572      0.80809029
O      -0.42625275      2.14347603      2.67542461
C      -1.45928434      1.23734015      0.44615376
C      -1.64434890     -0.01526563      1.03450674
C      -2.41705396     -0.97507885      0.37616520
C      -3.05575726     -0.67474428     -0.83163039
N      -3.72115303     -1.67964230     -1.54412568
C      -2.83501074      0.57436893     -1.42137691
C      -2.06061733      1.54229419     -0.77682763
H       0.20309455     -0.92919140     -2.37999432
H       0.38501718      0.44765286     -3.47436449
H       1.79275512     -0.57508257     -3.16263137
H       2.23812180     -1.82204486     -1.26780642
H       2.96582970     -2.70033529      0.88550719
H       3.58945201     -2.19737564      3.18261642
H       3.16150342     -0.74863787      3.93437526
H       1.99236993      1.02432863      2.79106285
H       1.10110034      2.62203277     -0.35393536
H      -1.17301670     -0.26082736      1.98390991
H      -2.51862850     -1.96261274      0.81934244
H      -4.40870710     -1.32584494     -2.20262065
H      -4.10437267     -2.41128746     -0.95260177
H      -3.26934963      0.80554333     -2.39071595
H      -1.91951145      2.51561033     -1.24049895
