46
CCN(CCO)C(=O)c1cc2ccccn2c1-c1cccc(OC)n1
C      -2.68262825      0.79710852      1.99373498
C      -1.54849424      1.23507425      1.08078024
N      -1.89969673      1.12336006     -0.34139968
C      -2.72982561      2.19202384     -0.91669003
C      -4.21194689      1.81816809     -1.07227330
O      -4.47360101      1.15814527     -2.30754441
C      -1.65857744     -0.01207224     -1.11873976
O      -2.16012342     -0.15614885     -2.23254121
C      -0.79500282     -1.04666713     -0.57121322
C      -1.18881541     -2.34802202     -0.16146594
C      -0.06268798     -2.99804035      0.28572428
C       0.16909369     -4.29739714      0.82363974
C       1.41806909     -4.66354383      1.16675931
C       2.54438962     -3.76339970      1.00021889
C       2.32923887     -2.53846213      0.49313173
N       1.03180269     -2.14583755      0.13830967
C       0.58812515     -0.95086389     -0.41443633
C       1.46643482      0.16382819     -0.75353150
C       1.49631546      0.70834725     -2.03240988
C       2.33142552      1.79514479     -2.26966984
C       3.09884137      2.29970098     -1.22601094
C       2.99870421      1.69451143      0.01679716
O       3.77878695      2.23243153      1.02140266
C       3.62441772      1.55979952      2.26703490
N       2.19884710      0.63943434      0.27751569
H      -3.00075290     -0.22564170      1.76795435
H      -3.55186619      1.45303516      1.88726125
H      -2.36223519      0.83433240      3.03959979
H      -1.27124433      2.27481229      1.28762691
H      -0.66977835      0.63234462      1.31442731
H      -2.30730326      2.44374160     -1.89686661
H      -2.63894656      3.07548196     -0.27565539
H      -4.56225682      1.17673599     -0.25905366
H      -4.81790096      2.72945171     -1.07370120
H      -3.73892808      0.52393560     -2.46172682
H      -2.19204763     -2.75429635     -0.18577078
H      -0.66471589     -4.98082318      0.94960066
H       1.61364777     -5.64963645      1.57655387
H       3.53500184     -4.09856069      1.28598486
H       3.12951606     -1.82494681      0.34466132
H       0.88500033      0.29938047     -2.83120662
H       2.38095186      2.24465178     -3.25725118
H       3.75991833      3.14592921     -1.37493638
H       4.27611914      2.05305586      2.99470761
H       3.93914929      0.51281101      2.19482098
H       2.59557909      1.63758225      2.63567986
