41
O=C1C=Cc2ccccc2/C1=N\Nc1ccc(S(=O)(=O)[O-])c2ccccc12.[Na+]
O      -3.62347023      2.31166608      3.01711126
C      -3.24326881      1.93398118      1.92003755
C      -3.75644825      2.53262973      0.67040561
C      -3.67456195      1.84211707     -0.47325982
C      -3.14399193      0.47329358     -0.50773584
C      -3.34490646     -0.31747321     -1.64611483
C      -2.88653796     -1.63604057     -1.67918669
C      -2.23691252     -2.17863835     -0.57260514
C      -2.02471722     -1.39855408      0.56404813
C      -2.44613183     -0.06547622      0.58767414
C      -2.20265229      0.83281779      1.74656099
N      -1.19958316      0.85841519      2.58273985
N      -0.14216505      0.01617605      2.37113547
C       0.80376777      0.35345173      1.33345365
C       0.83891809      1.64567682      0.79127145
C       1.74958874      1.96673161     -0.20646821
C       2.65435807      1.00196007     -0.66615443
S       3.79843757      1.50274771     -2.00040001
O       3.47434568      0.56015153     -3.06786008
O       3.42612798      2.88870577     -2.27901932
O       5.10729615      1.33549730     -1.37508890
C       2.68158955     -0.31258876     -0.12233320
C       3.58435388     -1.32867092     -0.52858566
C       3.57392742     -2.60689671      0.03066027
C       2.65462966     -2.91506620      1.01731261
C       1.75163642     -1.94088680      1.44094160
C       1.74073694     -0.63243722      0.89680938
Na      0.00000000      0.00000000      0.00000000
H      -4.20746140      3.51316037      0.74074665
H      -4.05221347      2.26830865     -1.39780601
H      -3.85689603      0.08204732     -2.51839968
H      -3.03258831     -2.24004362     -2.57137241
H      -1.87685464     -3.20410582     -0.59995115
H      -1.51837273     -1.83660308      1.41844658
H       0.42727496     -0.09092325      3.21724573
H       0.16353289      2.41760582      1.14612038
H       1.75847019      2.97001252     -0.62501764
H       4.32318770     -1.12752113     -1.30429654
H       4.28719455     -3.34849295     -0.31642469
H       2.63517565     -3.90766063      1.45592766
H       1.03518440     -2.21907440      2.20992072
