22
Clc1ccc(Cl)c(-c2ccc(Cl)c(Cl)c2)c1
Cl     -3.80011305     -0.13344594      2.55981186
C      -2.90302422     -0.20544850      1.09408470
C      -3.56247371     -0.44270884     -0.10822793
C      -2.83208204     -0.49912423     -1.29541270
C      -1.44399331     -0.31919090     -1.27692224
Cl     -0.61129121     -0.38648352     -2.79213129
C      -0.76322917     -0.08071982     -0.06639630
C       0.69199606      0.11118467      0.00698158
C       1.23695698      1.39381355      0.16791580
C       2.62061013      1.57789179      0.24197467
C       3.48106586      0.48072452      0.15887483
Cl      5.17913562      0.78073850      0.25936916
C       2.95249879     -0.80407665      0.00187898
Cl      3.95169291     -2.21002122     -0.10444890
C       1.56631865     -0.98473716     -0.07165927
C      -1.51924881     -0.02547446      1.11986397
H      -4.64029706     -0.58300204     -0.12925339
H      -3.35012415     -0.68167976     -2.23422409
H       0.58388196      2.26325113      0.22918632
H       3.02043013      2.58217939      0.36243925
H       1.16271618     -1.98844945     -0.19497297
H      -1.02142656      0.15477894      2.07126799
