37
Nc1nc(F)nc2c1ncn2[C@@H]1O[C@H](COP(=O)(O)O)[C@@H](O)[C@@H]1O
N       5.57923429     -0.69074245     -1.79261442
C       4.55814322      0.06007925     -1.22756953
N       4.55736329      1.39464904     -1.42909873
C       3.57281860      2.12882115     -0.87142239
F       3.61531306      3.45008007     -1.10367303
N       2.52959537      1.69602475     -0.12684442
C       2.57308414      0.36425965      0.04049531
C       3.52169112     -0.50731767     -0.46852208
N       3.23397569     -1.80585587     -0.11577134
C       2.13833141     -1.72150287      0.60978188
N       1.69424005     -0.42744018      0.73110793
C       0.57660743      0.00522632      1.54455660
O      -0.39651868     -1.06648807      1.61314020
C      -1.71246875     -0.47411001      1.66374028
C      -2.49523196     -0.90357205      0.42169453
O      -3.78796891     -0.32368115      0.44608556
P      -4.80159490     -0.67944271     -0.73822844
O      -6.14193593     -0.03612788     -0.66905356
O      -4.01483018     -0.32972042     -2.07999493
O      -4.87004771     -2.27190803     -0.77869136
C      -1.52255806      1.04287927      1.78357657
O      -1.39379460      1.41644805      3.16198916
C      -0.18514917      1.26617342      1.10144541
O      -0.40005973      1.35000570     -0.31176518
H       5.36454812     -1.67794638     -1.88376207
H       6.02861157     -0.22884221     -2.57196115
H       1.62663217     -2.55632323      1.07449551
H       0.96935621      0.13704471      2.56096425
H      -2.21776537     -0.86216614      2.55605591
H      -2.57941459     -1.99616566      0.41173308
H      -1.97219677     -0.62056525     -0.49661457
H      -4.13472818      0.60653833     -2.32399975
H      -5.64487611     -2.56933903     -1.28861161
H      -2.33845533      1.62498717      1.34489118
H      -2.27832169      1.33483059      3.56443852
H       0.31167480      2.18301549      1.43636393
H       0.43669608      1.68819434     -0.69108857
