20
Oc1cccc2c(O)cccc12
O      -2.17621809     -2.04427317      0.10503731
C      -1.61787037     -0.79145690      0.04785701
C      -2.45515915      0.32125462      0.00944554
C      -1.89725552      1.59104204     -0.04842469
C      -0.50837523      1.74501198     -0.06769814
C       0.36649113      0.63005956     -0.02953911
C       1.78209006      0.72096748     -0.04644335
O       2.46805296      1.90703283     -0.10206369
C       2.59308968     -0.41300647     -0.00690653
C       2.01786077     -1.67395745      0.05075484
C       0.62997042     -1.79617436      0.06870410
C      -0.21238708     -0.66462057      0.02955853
H      -3.14296988     -1.95828445      0.11044789
H      -3.53531701      0.21651253      0.02383008
H      -2.54039375      2.46714710     -0.07879517
H      -0.12819154      2.76073450     -0.11336408
H       1.84261963      2.64371715     -0.12694460
H       3.67435535     -0.30711533     -0.02134514
H       2.64411438     -2.56095403      0.08175729
H       0.19549323     -2.79363706      0.11413191
