37
CC(=O)Oc1c([N+](=O)[O-])cc([N+](=O)[O-])c(C)c1C(C)(C)C
C       3.44944683     -1.92258533      1.08990666
C       2.66077622     -0.74101748      0.61385473
O       3.06107414      0.09331400     -0.18628838
O       1.40767897     -0.74761412      1.22137436
C       0.59629526      0.33579584      0.84510189
C       0.87425469      1.61025665      1.38715646
N       1.88339890      1.79587625      2.43067460
O       2.05872688      0.87584595      3.24108083
O       2.47770982      2.88222312      2.45831596
C       0.17302612      2.72966559      0.96025434
C      -0.77094285      2.56161244     -0.05022879
N      -1.48103719      3.76792749     -0.46700250
O      -2.71275598      3.76638276     -0.34607009
O      -0.79410156      4.70756446     -0.88597481
C      -1.06694957      1.29628840     -0.63682600
C      -1.98225170      1.28020178     -1.84023028
C      -0.46030162      0.11633556     -0.09399721
C      -0.89937399     -1.33784296     -0.48379961
C      -0.68788533     -2.38103480      0.65499998
C      -0.08779178     -1.80480872     -1.70714029
C      -2.41562748     -1.47011733     -0.79646750
H       4.45959167     -1.87385933      0.67352706
H       2.97357613     -2.84593088      0.75137679
H       3.52436899     -1.90417636      2.18007792
H       0.36857930      3.71499441      1.38044834
H      -3.02144479      1.12877876     -1.53591365
H      -1.67328548      0.52413966     -2.56413816
H      -1.92534213      2.21494316     -2.40859940
H      -1.05628871     -2.00430994      1.61595212
H       0.35589348     -2.68423092      0.76798888
H      -1.21658970     -3.32003326      0.44800496
H      -0.38119803     -2.81620611     -2.01157199
H      -0.22968806     -1.14820251     -2.57081443
H       0.98612789     -1.82522771     -1.49336025
H      -2.68339413     -1.11452766     -1.79262331
H      -3.02365778     -0.94221111     -0.05319515
H      -2.74061743     -2.51820975     -0.79585410
