48
CCN1CCN(c2cc3c(cc2F)c(=O)c(C(=O)O)cn3C2CC2)CC1
C       6.80025922      0.13467304     -0.23734998
C       5.60415159     -0.79975265     -0.09301976
N       4.35241575     -0.08571221      0.19956195
C       3.28984513     -1.05328247      0.56241955
C       1.92298434     -0.38485878      0.84423640
N       1.49729182      0.43267534     -0.31854808
C       0.16074069      0.87322039     -0.24543290
C      -0.86432050     -0.09874034     -0.24939146
C      -2.22972391      0.23202051     -0.18885040
C      -2.57097155      1.59407793     -0.14896242
C      -1.58873565      2.58433453     -0.15742236
C      -0.24631916      2.21966822     -0.20840987
F       0.65187671      3.21640775     -0.20553841
C      -3.99909402      1.98771617     -0.12179591
O      -4.34144247      3.16635582     -0.04871673
C      -5.02234364      0.92469909     -0.20703349
C      -6.47469185      1.18769668     -0.26334485
O      -7.31425587      0.30338744     -0.35276965
O      -6.81102637      2.49446629     -0.20745408
C      -4.58412048     -0.34280439     -0.23486565
N      -3.26234518     -0.74815162     -0.17031109
C      -2.96881059     -2.19030404     -0.27865945
C      -3.70121780     -3.22774624      0.53919107
C      -2.26227983     -2.93844480      0.82580343
C       2.53329205      1.42424660     -0.68543488
C       3.88588588      0.72001443     -0.95422912
H       6.72969828      0.75344943     -1.13671484
H       6.89435201      0.79353804      0.63227671
H       7.72251201     -0.45084984     -0.31457999
H       5.50838377     -1.41978525     -0.99321005
H       5.82976581     -1.47873567      0.73914372
H       3.58910964     -1.60069295      1.46446385
H       3.16176282     -1.79041644     -0.24207484
H       1.20402530     -1.18175876      1.06555439
H       1.99774233      0.25054336      1.73681215
H      -0.57136675     -1.14146372     -0.33412335
H      -1.84965787      3.63843395     -0.12886789
H      -6.03933046      3.10764404     -0.12992508
H      -5.29303117     -1.16601992     -0.30683389
H      -2.72404614     -2.47320769     -1.30081258
H      -3.94743051     -4.16690506      0.05737777
H      -4.42895563     -2.90483376      1.27449971
H      -1.52758453     -3.68266081      0.54255583
H      -2.03013755     -2.40776761      1.74190228
H       2.67182680      2.15366427      0.12284800
H       2.24263373      1.95721260     -1.59879055
H       4.61747187      1.50109192     -1.18704957
H       3.78521193      0.08365715     -1.84367447
