10
NNC(N)=S
N      -1.14005078     -0.95321146      0.08776813
N      -0.73805608      0.39247568      0.21197215
C       0.56950059      0.76520363      0.04068544
N       1.42219969     -0.23781784     -0.28084210
S       1.07203681      2.33639368      0.19247017
H      -1.20601119     -1.15944388     -0.91355189
H      -2.09079003     -1.04753259      0.45211528
H      -1.39928152      1.12186381      0.47767136
H       1.09543758     -1.16423153     -0.03178077
H       2.41501492     -0.05369949     -0.23650777
