15
CCOC(=O)CC#N
C      -2.63236749      0.10404186     -0.43377908
C      -1.36598394      0.39605484      0.34711241
O      -0.25242204     -0.11469889     -0.39900586
C       0.96242094      0.08318144      0.19656959
O       1.12201063      0.64275287      1.27085744
C       2.03841275     -0.49366346     -0.67991775
C       3.36791997     -0.31477513     -0.09844401
N       4.44703194     -0.20128189      0.31433436
H      -2.59175581      0.57187074     -1.42301338
H      -3.51285310      0.47633714      0.09726670
H      -2.74584064     -0.97303514     -0.59541666
H      -1.41194754     -0.09626667      1.32490452
H      -1.25495689      1.47778039      0.48169825
H       1.99318784      0.00312205     -1.65484936
H       1.83714337     -1.56142015     -0.81673584
