49
COc1ccc(C2(c3cccc(-c4cncnc4)c3)N=C(C)C(N)=N2)cc1C
C      -4.42866025      2.65347501     -2.79123490
O      -4.43756940      2.15989574     -1.45838343
C      -3.40697497      1.33570250     -1.08711793
C      -2.37969679      0.91065427     -1.93199261
C      -1.37071630      0.06592787     -1.45552089
C      -1.36530397     -0.38150943     -0.12545786
C      -0.24007687     -1.29045878      0.41178688
C       0.86901511     -0.42137481      1.03987056
C       0.87767143     -0.12857390      2.41236228
C       1.87055761      0.67977464      2.96359979
C       2.86937154      1.21645109      2.15012713
C       2.89464904      0.95911668      0.77063171
C       3.94089678      1.52447811     -0.08836750
C       4.31700474      2.85766506     -0.05181690
N       5.27950085      3.40819653     -0.82549077
C       5.88403139      2.57033594     -1.67930731
N       5.61842383      1.26427796     -1.82129875
C       4.64844153      0.77601682     -1.01568381
C       1.88257775      0.14056461      0.23631729
N       0.34002025     -2.11249833     -0.70696938
C       0.12254437     -3.32870023     -0.34155614
C       0.50906265     -4.54580196     -1.09845217
C      -0.58389736     -3.41436979      0.96069590
N      -0.95656549     -4.57365328      1.56978625
N      -0.80399582     -2.23907426      1.43415540
C      -2.39936682      0.06116802      0.71822922
C      -3.41943478      0.90790553      0.25088377
C      -4.50555177      1.35299198      1.19094841
H      -3.53389971      3.25418625     -2.98525308
H      -5.29882897      3.30607819     -2.91127512
H      -4.52380450      1.83718787     -3.51475033
H      -2.32776835      1.21845237     -2.97069002
H      -0.57976962     -0.24037702     -2.13733896
H       0.10346670     -0.53107649      3.06256753
H       1.86550059      0.89110143      4.02983114
H       3.63851931      1.83258756      2.61198856
H       3.82992576      3.55946216      0.62093210
H       6.65876952      2.98726943     -2.31309090
H       4.45814145     -0.28751028     -1.14004981
H       1.86484683     -0.05872002     -0.83511495
H      -0.38813170     -5.10210402     -1.38178929
H       1.14834110     -5.17868842     -0.47754946
H       1.05551611     -4.26801234     -2.00370290
H      -1.21205631     -5.34928031      0.97038479
H      -1.62453179     -4.41870772      2.31934453
H      -2.40725413     -0.25892699      1.75901988
H      -4.49032603      2.44241423      1.29856811
H      -4.37792101      0.91882251      2.18820084
H      -5.48469353      1.03725798      0.81635756
