32
NC(=O)c1ccc(NC(=O)c2ccc([N+](=O)[O-])cc2)cc1
N       6.36136061      0.88631487     -0.35853678
C       5.50880869      0.48739173     -1.35025492
O       5.92885417      0.23439770     -2.47240272
C       4.07044379      0.33350109     -1.00374041
C       3.27039829     -0.46259812     -1.82947526
C       1.91222487     -0.63578726     -1.54284382
C       1.33224139     -0.01366309     -0.43040938
N      -0.04411812     -0.23436733     -0.21301462
C      -0.80032064      0.19950606      0.86057021
O      -0.39695615      0.78918183      1.85524236
C      -2.25057977     -0.13982661      0.78798613
C      -2.92489411     -0.44357814      1.97989752
C      -4.28686328     -0.75887954      1.96184288
C      -4.97799800     -0.75826067      0.74321791
N      -6.40954572     -1.08758387      0.71676865
O      -6.97895415     -1.08512341     -0.38378079
O      -6.96018970     -1.35245176      1.79432618
C      -4.31618468     -0.43852856     -0.45161947
C      -2.95259665     -0.12499351     -0.42633056
C       2.13046328      0.79549622      0.38091098
C       3.49164901      0.97211114      0.09702209
H       6.11407381      0.83764602      0.61903154
H       7.34685609      0.86284621     -0.58887110
H       3.70360308     -0.95312736     -2.69949417
H       1.32215107     -1.26487713     -2.20433624
H      -0.49959774     -0.83559987     -0.88704542
H      -2.38707830     -0.43377478      2.92751929
H      -4.78822147     -0.99448479      2.89892416
H      -4.84787661     -0.41723148     -1.40164472
H      -2.46269805      0.16027321     -1.35448882
H       1.72156915      1.31901265      1.24013598
H       4.06997584      1.63384574      0.73489333
