13
Oc1ccc(I)cc1
O      -2.52992544      0.42196375     -0.08015033
C      -1.18407563      0.20906750     -0.04236743
C      -0.35533973      1.22744808     -0.50119787
C       1.02964089      1.05513328     -0.48193375
C       1.56957714     -0.13876430     -0.00187223
I       3.63153086     -0.40075323      0.02909097
C       0.73412480     -1.15900529      0.45799662
C      -0.65189079     -0.98428023      0.43776155
H      -2.98017996     -0.36533335      0.26727980
H      -0.78662106      2.15280868     -0.87279300
H       1.66910644      1.85632424     -0.84243025
H       1.14711921     -2.09173399      0.83338068
H      -1.29306673     -1.78287514      0.79723525
