38
O=P(Oc1ccccc1)(Oc1ccccc1)Oc1ccccc1
O       0.25181816      0.53587999      1.71977974
P       0.04363215      0.09284179      0.29794835
O       1.24986758     -0.77131510     -0.33614190
C       2.54024911     -0.34078645     -0.45357049
C       3.01511879      0.86782714      0.05112413
C       4.35717030      1.21512151     -0.12529105
C       5.22227490      0.35665266     -0.80279066
C       4.74777632     -0.85346033     -1.30436683
C       3.40811846     -1.20121542     -1.12834541
O      -1.24801462     -0.84251688      0.05178616
C      -1.47032204     -2.04255098      0.66393504
C      -0.66015185     -2.57787211      1.66294536
C      -0.97659162     -3.81799466      2.22401585
C      -2.09992694     -4.52033570      1.78902386
C      -2.91177408     -3.98306494      0.79235594
C      -2.59684489     -2.74479640      0.23189928
O      -0.15635787      1.28499788     -0.77098026
C      -1.14367577      2.22637864     -0.71409234
C      -2.05531178      2.34772236      0.33240647
C      -3.03054398      3.34778171      0.29189191
C      -3.09368685      4.22469382     -0.79042836
C      -2.17968428      4.10515696     -1.83513601
C      -1.20540868      3.10725788     -1.79533953
H       2.37434449      1.55826658      0.59142734
H       4.72821146      2.15738491      0.27078721
H       6.26575296      0.63018805     -0.93666893
H       5.41946014     -1.52627088     -1.83092036
H       3.04123478     -2.14650385     -1.52024403
H       0.21765952     -2.05714185      2.03377426
H      -0.34550523     -4.23456123      3.00543394
H      -2.34307673     -5.48408680      2.22908375
H      -3.78944745     -4.52633752      0.45230427
H      -3.23279960     -2.32801098     -0.54502382
H      -2.03250620      1.68949557      1.19579865
H      -3.74048703      3.44388418      1.10991168
H      -3.85312420      5.00194876     -0.81727825
H      -2.22419743      4.78816814     -2.67929715
H      -0.49325002      3.01717356     -2.61171783
