24
Cc1nc2c([nH]1)c(=O)n(C)c(=O)n2C
C       3.54124667     -1.31754574      1.16513831
C       2.21172472     -0.83258790      0.72609833
N       1.77072381      0.41350813      0.75968644
C       0.50741648      0.35149406      0.25617209
C       0.16622482     -0.91716007     -0.08655719
N       1.25488288     -1.68099991      0.21238046
C      -1.08979079     -1.27455873     -0.63600388
O      -1.36837240     -2.43096197     -0.93574804
N      -1.94110086     -0.17716262     -0.78718297
C      -3.26077612     -0.40752953     -1.34050719
C      -1.63018479      1.15750475     -0.44537305
O      -2.45148829      2.06344366     -0.61645128
N      -0.36296958      1.40075313      0.08959543
C       0.03620418      2.74379755      0.46725154
H       4.07573151     -1.78316721      0.33146026
H       3.43663222     -2.05349390      1.96821501
H       4.14902949     -0.48809114      1.53945055
H       1.33778271     -2.68088061      0.07962822
H      -4.01276882     -0.07942322     -0.61539154
H      -3.43657215     -1.45854151     -1.58271795
H      -3.37428608      0.19062346     -2.25059945
H      -0.75606405      3.47282183      0.27828480
H       0.91990499      3.03005687     -0.11182341
H       0.27686940      2.75810060      1.53499449
