14
O=C(CCl)NC(=O)CCl
O      -1.78509978     -0.33378753     -1.68884202
C      -1.27681151     -0.23255105     -0.57171977
C      -2.05551268      0.06967353      0.69815885
Cl     -3.67794286     -0.65375694      0.60995959
N       0.09078713     -0.35516854     -0.47092613
C       0.88140408      0.46961550      0.30793189
O       0.47283779      1.04551071      1.31449685
C       2.35326400      0.49283383     -0.06391930
Cl      2.57556014      0.36820428     -1.82259282
H      -2.16301543      1.15052168      0.81736176
H      -1.56547861     -0.36658655      1.57145634
H       0.49069848     -0.57202956     -1.37959046
H       2.79554866      1.43786534      0.26161476
H       2.86376059     -0.34566101      0.41661046
