28
Cc1csc(NS(=O)(=O)c2ccc(N)cc2)n1
C       5.68840967      0.10863678     -0.34513272
C       4.29718970      0.62135173     -0.42737197
C       3.91383447      1.94145843     -0.58389303
S       2.20323892      2.05110826     -0.65161336
C       2.11241806      0.36594099     -0.40803577
N       0.88158229     -0.39966245     -0.41304121
S       0.11183875     -0.34737022      1.09069233
O       0.39001951     -1.61045868      1.74137839
O       0.32762671      0.91751074      1.75774964
C      -1.58985350     -0.37083252      0.57424672
C      -2.15601998      0.79170098      0.04668136
C      -3.49399507      0.78222536     -0.35504032
C      -4.28286029     -0.36069679     -0.18804704
N      -5.58339774     -0.39808520     -0.70238806
C      -3.68586614     -1.52896681      0.29805904
C      -2.34841478     -1.53494431      0.70338603
N       3.24791490     -0.28304362     -0.36196600
H       6.07408165     -0.09524135     -1.34820831
H       6.34775087      0.83626813      0.13911519
H       5.72588295     -0.81891408      0.23456477
H       4.53743584      2.81987248     -0.66912432
H       1.15443707     -1.37115775     -0.56923102
H      -1.56443091      1.69749784     -0.06410606
H      -3.91921954      1.68000821     -0.79686674
H      -6.03908545      0.50868843     -0.73772914
H      -6.17400191     -1.10753311     -0.27950592
H      -4.26292570     -2.44765210      0.36928120
H      -1.91359035     -2.44770935      1.10381096
