21
CN(Cc1ccccc1)N=O
C       1.52195354      0.18545498      1.95872715
N       1.70358625     -0.85376723      0.93944768
C       1.37671639     -0.33055920     -0.40686205
C      -0.09184684      0.00765525     -0.58581853
C      -0.49363631      1.31747171     -0.88604165
C      -1.84600619      1.62070669     -1.05346886
C      -2.80792183      0.62008574     -0.92606448
C      -2.42015767     -0.68583802     -0.63279215
C      -1.06925392     -0.99219333     -0.46516619
N       2.89932579     -1.39935346      1.01870799
O       2.94105080     -2.46567638      0.39524187
H       2.16594951      1.05657557      1.78387888
H       1.74690473     -0.20540503      2.95970248
H       0.48262468      0.52869955      2.00223918
H       1.99851304      0.54609011     -0.63828891
H       1.60843649     -1.07361118     -1.18396008
H       0.24218842      2.11134244     -0.99219049
H      -2.15019356      2.63818215     -1.28557336
H      -3.86041693      0.85739815     -1.05754694
H      -3.16951500     -1.46714697     -0.53525195
H      -0.77830140     -2.01611154     -0.23655302
