78
CC1(C)CC(NCCCCCCNC2CC(C)(C)NC(C)(C)C2)CC(C)(C)N1
C       5.64158547      1.23234603     -2.65881944
C       5.72766699      0.65263253     -1.22659605
C       6.88282562      1.39004658     -0.52474550
C       4.38134236      0.91741476     -0.52061857
C       4.23814710      0.13369556      0.78996725
N       2.90901580      0.31298917      1.40292208
C       2.70199703      1.65339596      1.95140350
C       1.36482461      1.74520998      2.69748662
C       0.11933469      1.38959777      1.87416230
C      -0.08636069      2.29516242      0.65674007
C      -1.32996113      1.92854904     -0.16210073
C      -2.64527943      2.23566355      0.56423767
N      -3.82510428      1.99864471     -0.27419969
C      -4.19251510      0.57599111     -0.41173672
C      -4.73203710     -0.00493726      0.90806305
C      -5.76557766     -1.14720152      0.74162460
C      -7.20521119     -0.62590008      0.92295585
C      -5.52385244     -2.18904064      1.85551200
N      -5.60928921     -1.86261563     -0.52662579
C      -5.58180534     -1.06491338     -1.75985399
C      -4.51347490     -1.72640043     -2.65589151
C      -6.93098838     -1.16487098     -2.49580959
C      -5.22694650      0.42117901     -1.52879780
C       4.42864723     -1.35803342      0.48219036
C       5.77249850     -1.66046377     -0.21150362
C       5.71734686     -3.10799876     -0.75589317
C       6.94465408     -1.61201652      0.78512454
N       6.00770564     -0.78825854     -1.37819919
H       5.42699184      2.30750871     -2.63826506
H       4.84561540      0.75336720     -3.24259714
H       6.58359244      1.09340870     -3.20355871
H       6.76850530      2.47649038     -0.62659135
H       7.85130027      1.12501837     -0.96567740
H       6.93433645      1.19026145      0.54622047
H       3.55443662      0.64092253     -1.19074078
H       4.28011815      1.99420325     -0.33928219
H       4.99878188      0.44938709      1.51213774
H       2.78937796     -0.36971214      2.15158359
H       3.50432121      1.89746780      2.65760800
H       2.72433528      2.40984357      1.16170375
H       1.39776622      1.08397010      3.57342275
H       1.25485064      2.76483441      3.08796293
H      -0.74725037      1.46487586      2.54066838
H       0.16995740      0.34332673      1.55138868
H       0.78026928      2.21511712     -0.00933556
H      -0.14680477      3.34230586      0.97526982
H      -1.27579196      0.86891853     -0.43790416
H      -1.29780351      2.50066609     -1.09878671
H      -2.72070718      1.68570685      1.50669966
H      -2.65077217      3.29864631      0.83410584
H      -3.65852151      2.39797371     -1.19789980
H      -3.30350504      0.00640179     -0.70550291
H      -5.18454786      0.79388870      1.51141033
H      -3.86689157     -0.35493878      1.48710555
H      -7.45985938      0.17266318      0.22180462
H      -7.34647500     -0.21774129      1.93170120
H      -7.94040011     -1.43014634      0.79451681
H      -5.60376227     -1.73039979      2.84739025
H      -6.25417482     -3.00555566      1.81071805
H      -4.52545272     -2.63457651      1.77784338
H      -6.27756655     -2.62856025     -0.59962791
H      -4.42380108     -1.20323800     -3.61489407
H      -4.76677697     -2.76995770     -2.87710731
H      -3.52441588     -1.72343740     -2.18514537
H      -6.89743661     -0.62040235     -3.44689560
H      -7.75094956     -0.74409045     -1.90590834
H      -7.18971223     -2.20614845     -2.72205588
H      -4.84322822      0.85770897     -2.46144139
H      -6.12320872      1.00206516     -1.27734894
H       3.60288037     -1.69601941     -0.16091649
H       4.35301273     -1.94354094      1.40886269
H       5.54351465     -3.82776785      0.05303016
H       6.65616230     -3.38575706     -1.24993269
H       4.90758905     -3.23619868     -1.48437707
H       7.90748560     -1.71182286      0.27078524
H       6.97247258     -0.69523227      1.37523202
H       6.87625381     -2.43632347      1.50566145
H       5.42670002     -1.13524800     -2.14372766
