29
CC(=O)N[C@@H](Cc1cc(Br)c(O)c(Br)c1)C(=O)O
C      -3.27108878      1.87143971     -0.04518551
C      -2.63143343      0.80070619     -0.88611691
O      -2.71570488      0.79082557     -2.10952789
N      -1.93099383     -0.13837886     -0.17698652
C      -1.27125942     -1.27605003     -0.82351772
C       0.00676459     -0.88958351     -1.58886776
C       1.07600519     -0.22696886     -0.74517269
C       1.08053439      1.16439389     -0.57090004
C       2.05490638      1.77294010      0.22351217
Br      2.01035983      3.65667380      0.43672761
C       3.03923047      1.00450825      0.85057925
O       3.99869914      1.59162425      1.63296483
C       3.04435787     -0.38046164      0.67578116
Br      4.35356765     -1.48033381      1.49753801
C       2.06960310     -0.99341243     -0.11867341
C      -1.00114561     -2.33792975      0.23944215
O      -1.22254693     -2.22527641      1.43715851
O      -0.50244415     -3.48741526     -0.25593568
H      -2.76343904      2.82154818     -0.23152673
H      -3.20724690      1.64157577      1.02190861
H      -4.32681691      1.95584372     -0.31679430
H      -1.92332692     -0.11779645      0.83896664
H      -1.99656039     -1.70419772     -1.52686256
H       0.43858226     -1.77895049     -2.06637135
H      -0.24592673     -0.21478762     -2.41686717
H       0.32065747      1.77141032     -1.06044603
H       3.84300001      2.55317531      1.62588803
H       2.08789300     -2.07333082     -0.25325347
H      -0.41422742     -4.07179141      0.52767599
