40
Cc1ccc(N/N=C2\C(=O)C(C(=O)[O-])=Cc3ccccc32)c(S(=O)(=O)[O-])c1.[Ca+2]
C      -4.99971253      1.76000301     -1.24731240
C      -3.87937313      0.90845380     -0.73740076
C      -2.67006327      0.82922727     -1.43158482
C      -1.63902567      0.00270255     -0.96961525
C      -1.78423030     -0.78463284      0.18816823
N      -0.67306514     -1.58066027      0.60653742
N       0.37741990     -0.84411190      1.08458994
C       1.47536147     -0.78839286      0.38457988
C       1.73342539     -1.46405605     -0.96646261
O       1.35267330     -2.60211619     -1.19661591
C       2.61576627     -0.70857351     -1.88144491
C       2.56906640     -0.92104409     -3.37776747
O       1.46055707     -0.67334403     -3.93054954
O       3.68379734     -1.19225194     -3.92027266
C       3.49453697      0.18019183     -1.38983823
C       3.59438902      0.46040805      0.04010368
C       4.65472130      1.22768717      0.53800636
C       4.72377621      1.54104097      1.89879858
C       3.72891501      1.09945991      2.77021797
C       2.66591856      0.33915277      2.28338276
C       2.60463334      0.01436649      0.92179316
C      -3.00753549     -0.70632320      0.87357587
S      -3.37196005     -1.67165639      2.36202697
O      -3.37379329     -0.65539582      3.41215738
O      -2.28432823     -2.64614809      2.43438118
O      -4.68383677     -2.24673369      2.06426430
C      -4.04606620      0.12536575      0.40946335
Ca      0.00000000      0.00000000      0.00000000
H      -4.61314174      2.65744203     -1.74224435
H      -5.64316092      2.09444378     -0.42653553
H      -5.60547006      1.19448807     -1.96203360
H      -2.51108009      1.39747510     -2.34409563
H      -0.71534085     -0.05251013     -1.54190294
H      -1.04688113     -2.21692459      1.34405818
H       4.15744243      0.70972522     -2.06965234
H       5.43081035      1.58765927     -0.13323620
H       5.55056609      2.13635528      2.27559304
H       3.77265080      1.34798696      3.82680386
H       1.88408146     -0.00199940      2.96016347
H      -4.98244382      0.14323974      0.96412357
