9
ClCOCCl
Cl      1.71033769     -1.53987666      0.33433359
C       1.16535065      0.05593415     -0.21311548
O      -0.09396367     -0.05610379     -0.85807673
C      -1.18298896     -0.06646530      0.05204235
Cl     -1.61962618      1.59404112      0.49407119
H       1.89268482      0.41543130     -0.94570669
H       1.14816869      0.74961255      0.63346592
H      -0.97399455     -0.64561478      0.95707985
H      -2.04596851     -0.50695859     -0.45409400
