24
CCC(C)c1ccccc1
C      -2.08992982     -1.50755288     -0.50384085
C      -1.93763097     -0.00375383     -0.69793611
C      -1.01283450      0.65102135      0.34833075
C      -1.05456278      2.17813216      0.21469114
C       0.42027822      0.14952553      0.27565651
C       1.19556307      0.29604204     -0.88487906
C       2.51001464     -0.17321338     -0.92819430
C       3.06738641     -0.79371335      0.18719561
C       2.31124772     -0.94489559      1.34697325
C       0.99673780     -0.47606438      1.39172757
H      -2.81290682     -1.90684579     -1.22244210
H      -1.14240714     -2.03192678     -0.65977509
H      -2.45187248     -1.73838659      0.50310169
H      -1.57973822      0.19151536     -1.71583227
H      -2.93443499      0.44959569     -0.62654197
H      -1.41770810      0.41039256      1.34092950
H      -0.72111238      2.51144440     -0.77418448
H      -0.41159991      2.65534063      0.96283040
H      -2.07382703      2.55036726      0.36476280
H       0.78223520      0.77819007     -1.76751211
H       3.09856889     -0.05346387     -1.83390302
H       4.09024853     -1.15864273      0.15277207
H       2.74429005     -1.42830447      2.21864327
H       0.42399460     -0.60480344      2.30742678
