32
CN1C(=O)CCC(N2C(=O)c3ccccc3C2=O)C1=O
C      -3.83908861      1.54923601      0.81689816
N      -3.06072688      0.60739086      0.03104058
C      -3.74378028     -0.48181563     -0.51071878
O      -4.95654816     -0.65163022     -0.38509548
C      -2.92855091     -1.45674030     -1.33077374
C      -1.51125803     -1.57361213     -0.80948144
C      -0.87706860     -0.19265793     -0.84233185
N       0.52455750     -0.17596397     -0.44772650
C       1.46003791      0.60165913     -1.07708951
O       1.34145073      1.27295380     -2.08443213
C       2.69456316      0.48186656     -0.30532871
C       3.94134964      1.03703564     -0.51608599
C       4.93906299      0.73760388      0.41719424
C       4.66876917     -0.09500108      1.52359909
C       3.39617638     -0.64262049      1.71556189
C       2.42971769     -0.33481815      0.77825942
C       1.02559641     -0.73205369      0.69821605
O       0.46165097     -1.41450064      1.53178411
C      -1.67041786      0.77803363      0.04149778
O      -1.11600954      1.67913259      0.67522135
H      -3.39474049      2.54845317      0.77864292
H      -4.86942182      1.61239376      0.45492549
H      -3.84749915      1.20489442      1.85599907
H      -3.41260219     -2.43855232     -1.28171852
H      -2.94366498     -1.12339104     -2.37442005
H      -0.93885522     -2.27482544     -1.42725290
H      -1.53872189     -1.97972148      0.20791101
H      -0.93814635      0.21020632     -1.86224941
H       4.13336754      1.68056364     -1.36845812
H       5.93688161      1.15498102      0.29231870
H       5.46138797     -0.30933534      2.23862480
H       3.17253131     -1.27916455      2.56546849
