35
Cc1cccc(C)c1N(C(=O)CCl)C1CCOC1=O
C       0.05451639      0.98397090      2.40012916
C      -1.06334539      0.53060747      1.50113244
C      -2.34591748      0.42595195      2.06227637
C      -3.42045720     -0.03978078      1.30922145
C      -3.22928989     -0.41812264     -0.01649405
C      -1.96299438     -0.32572914     -0.61200770
C      -1.80559853     -0.77923002     -2.03862389
C      -0.87627704      0.14626705      0.15677431
N       0.41132414      0.21344074     -0.43295782
C       0.91811098      1.37526474     -1.01458622
O       2.08829922      1.43745459     -1.40646725
C      -0.00294532      2.57554403     -1.17982947
Cl      0.39054183      3.79054153      0.05338985
C       1.26028116     -0.97510937     -0.28109277
C       2.50131888     -0.80665434      0.57137741
C       3.41732698     -1.86947332      0.01698834
O       3.08587434     -2.00933135     -1.36450862
C       1.83555039     -1.49863786     -1.58868391
O       1.26873808     -1.53964043     -2.67028681
H       0.41311081      0.13936668      2.99683126
H       0.89886258      1.40005447      1.84674045
H      -0.29371344      1.77039439      3.07880071
H      -2.51355226      0.70480253      3.10126879
H      -4.40740764     -0.11571502      1.75930642
H      -4.07919088     -0.79064109     -0.58540418
H      -1.18025027     -0.08535625     -2.60810913
H      -2.77369857     -0.81959390     -2.54985029
H      -1.36678132     -1.78082355     -2.06501446
H       0.17369894      3.01494685     -2.16649356
H      -1.06376581      2.33545490     -1.11290495
H       0.65667820     -1.79934329      0.12514398
H       2.31019443     -0.94123675      1.63997995
H       2.96505467      0.17697773      0.45135319
H       4.47035849     -1.58973181      0.11498054
H       3.26534492     -2.83688964      0.50762046
