15
C=CCNC(N)=S
C      -2.63597997      0.86996297      0.21208991
C      -1.77001966     -0.09361719     -0.12902614
C      -0.34489738      0.14216679     -0.50839292
N       0.49367480     -0.40619743      0.53158205
C       1.82660107     -0.61018003      0.49112193
N       2.48085504     -0.30971600     -0.64720522
S       2.63484451     -1.24851414      1.79124504
H      -2.34466335      1.91537226      0.24728360
H      -3.66254463      0.62737307      0.47059633
H      -2.11300516     -1.12612590     -0.15276003
H      -0.11074220      1.20761544     -0.60590911
H      -0.11770589     -0.34832473     -1.46038438
H       0.06477055     -0.60098842      1.42936543
H       3.49091745     -0.38841384     -0.62337243
H       2.10789483      0.36958714     -1.29289181
