20
CCCC(C(=O)O)C(=O)O
C       2.61744593      0.17149831      1.25694720
C       1.56368348     -0.33803455      0.28581195
C       0.26737606      0.47140458      0.39208038
C      -0.80684127     -0.01270319     -0.59531044
C      -1.36299799     -1.35318754     -0.19324413
O      -1.35126379     -1.85753123      0.91755947
O      -1.90344916     -2.02224012     -1.23337102
C      -1.90716480      1.00656819     -0.69515516
O      -3.04324339      0.92075339     -0.26106170
O      -1.52196130      2.12196914     -1.35263423
H       3.53519822     -0.41751152      1.16352438
H       2.86412003      1.21868880      1.05482441
H       2.26754433      0.09375757      2.29127825
H       1.95745673     -0.27471955     -0.73526860
H       1.37200860     -1.39628571      0.49421268
H       0.49972281      1.52725096      0.20264973
H      -0.11399387      0.42347200      1.42045282
H      -0.36043686     -0.12824034     -1.59162179
H      -2.25220246     -2.84612938     -0.83054089
H      -2.32100129      2.69122016     -1.34671228
