29
CNC.O=C(O)COc1ccc(Cl)cc1Cl
C      -1.20487793      0.00962646     -0.06959434
N       0.05606020     -0.71752574     -0.12426118
C       1.18772694      0.19853100     -0.08097372
O      -3.76536434      0.92984240     -0.39534101
C      -3.29857177     -0.13667359     -0.03374159
O      -4.12543368     -1.15155706      0.30678415
C      -1.83841928     -0.52823262      0.10263601
O      -0.99472228      0.55618443     -0.26133854
C       0.36040243      0.36701142     -0.19362835
C       0.97632387     -0.82301322      0.21012370
C       2.37195811     -0.91950506      0.24663673
C       3.15758603      0.17089323     -0.11952688
Cl      4.87196854      0.04128278     -0.07093469
C       2.56437797      1.36148975     -0.52340728
C       1.17102490      1.45705762     -0.55960136
Cl      0.48093057      2.95942958     -1.06907849
H      -2.03698913     -0.70017331     -0.10861027
H      -1.29660604      0.58561482      0.85706022
H      -1.30909074      0.68625820     -0.92399846
H       0.11019476     -1.35536997      0.66938022
H       1.19668105      0.78247898      0.84519503
H       2.12050727     -0.37192570     -0.12837041
H       1.17639363      0.88248526     -0.93582709
H      -5.02027417     -0.77014136      0.17542968
H      -1.66938151     -0.79871625      1.15107808
H      -1.66455980     -1.37882745     -0.56611454
H       0.40452151     -1.69754960      0.50396317
H       2.83876116     -1.84984776      0.56224224
H       3.17887172      2.21087275     -0.80862918
