31
CC(C)(OC1CCCCC1)C(=O)O
C       2.84303006      1.78565368     -0.29080380
C       1.97928060      0.53986402     -0.04891485
C       2.29914929     -0.00876822      1.34854545
O       0.62245757      0.99436000     -0.10885398
C      -0.39085512     -0.00864126     -0.00254228
C      -1.35884096      0.17557974     -1.17592608
C      -2.55674703     -0.76279475     -1.07465903
C      -3.28156215     -0.60357583      0.25864070
C      -2.32911738     -0.76347505      1.44008679
C      -1.13136854      0.17427700      1.32642977
C       2.37853017     -0.49558045     -1.12344588
O       3.06905395     -1.49013603     -0.95949969
O       1.89363121     -0.21452118     -2.35164713
H       2.61080380      2.23965186     -1.26154211
H       2.64478320      2.55332574      0.46611849
H       3.91261832      1.54918742     -0.27729267
H       3.36959120     -0.21062006      1.46746624
H       1.77080082     -0.94897917      1.54039257
H       1.99099115      0.69755487      2.12739177
H       0.03352645     -1.01902132     -0.05005392
H      -0.83336070      0.00548030     -2.12259956
H      -1.70316607      1.21755031     -1.21278328
H      -3.25198162     -0.56445168     -1.89807499
H      -2.21786582     -1.80022998     -1.18484868
H      -3.75065304      0.38718354      0.30140229
H      -4.08790011     -1.34198180      0.33142726
H      -1.97639672     -1.80109528      1.48717755
H      -2.86549717     -0.56553684      2.37489160
H      -0.44961444      0.00292406      2.16657021
H      -1.46279976      1.21643075      1.42438980
H       2.22947883     -0.93961438     -2.91744258
