27
CC(=O)c1ccc(-c2ccccc2)cc1
C       4.82219031     -0.14890462      0.34837520
C       3.79343113     -1.12141229     -0.16639143
O       4.12286221     -2.22438338     -0.59828757
C       2.35288267     -0.72804068     -0.14732168
C       1.92349413      0.51610512      0.32397065
C       0.55983094      0.83702111      0.32047295
C      -0.40222786     -0.07069610     -0.15212796
C      -1.83349574      0.27361541     -0.15540569
C      -2.47637013      0.71012692      1.01518849
C      -3.83518093      1.03724653      1.01238612
C      -4.57470198      0.93417783     -0.16289848
C      -3.95732305      0.50373521     -1.33435844
C      -2.59873465      0.17589893     -1.32967760
C       0.04391394     -1.31538832     -0.62235447
C       1.40437955     -1.64193804     -0.62023025
H       4.63749859      0.07631637      1.40189727
H       4.81603177      0.76323017     -0.25385443
H       5.81571826     -0.60124460      0.26836901
H       2.62299622      1.25819494      0.69677063
H       0.24994129      1.81676889      0.68118444
H      -1.92123836      0.78610714      1.94795797
H      -4.31500962      1.36884425      1.92952514
H      -5.63145049      1.18812151     -0.16576857
H      -4.53094802      0.42397202     -2.25413317
H      -2.13471972     -0.14841114     -2.25912728
H      -0.67092399     -2.05157280     -0.98618248
H       1.71715351     -2.61749037     -0.98898236
