42
CNCCCN1c2ccccc2CCc2ccccc21
C       5.45485124     -0.30309999     -0.27845606
N       4.03889437     -0.56322401     -0.04948914
C       3.25279286     -0.27393914     -1.25010286
C       1.76442258     -0.53565636     -1.01176761
C       1.17043784      0.39539391      0.05829273
N      -0.30618549      0.28084990      0.13022759
C      -1.05023541      1.46376855      0.38225851
C      -0.46443647      2.53200163      1.10165423
C      -1.15662316      3.70952841      1.39693724
C      -2.47128496      3.85360325      0.98984842
C      -3.08494814      2.81778275      0.29330524
C      -2.39640154      1.62175783     -0.02428718
C      -3.21723314      0.59780533     -0.78680796
C      -2.49708464     -0.57897755     -1.43618306
C      -1.90338106     -1.48322672     -0.39157046
C      -2.41722162     -2.77189965     -0.18072301
C      -1.86291065     -3.59943557      0.79314775
C      -0.79751223     -3.14390936      1.56284443
C      -0.28248661     -1.86225361      1.35359447
C      -0.82114070     -1.01511039      0.37188510
H       5.62876494      0.74915383     -0.52555340
H       5.85393708     -0.93123920     -1.08149768
H       6.01756919     -0.52435276      0.63371772
H       3.91938967     -1.54557368      0.20198417
H       3.59066151     -0.90764728     -2.07903727
H       3.39301537      0.77079311     -1.55258679
H       1.22945398     -0.38434634     -1.95823968
H       1.62280567     -1.58841734     -0.74127073
H       1.62257052      0.22048726      1.04163246
H       1.45100789      1.41251166     -0.24526655
H       0.54889329      2.44966168      1.48593500
H      -0.66687094      4.50082466      1.95736040
H      -3.02241143      4.76064315      1.22022557
H      -4.12328814      2.94026897     -0.01088814
H      -3.98842754      0.21670239     -0.10320666
H      -3.74106108      1.12884690     -1.59349678
H      -3.21560918     -1.14054726     -2.04643371
H      -1.71602062     -0.23839411     -2.12766145
H      -3.25420924     -3.13370569     -0.77253882
H      -2.26681963     -4.59489389      0.95598830
H      -0.36953165     -3.78037975      2.33235392
H       0.53386726     -1.52215551      1.98387175
