21
O=C(O)c1ccc(C(=O)O)c(C(=O)O)c1
O       3.91104114     -1.30569569      0.03417444
C       3.14948651     -0.35797591     -0.00548685
O       3.60213942      0.90677804     -0.02787807
C       1.66865004     -0.43729229     -0.03683544
C       1.07398540     -1.70547772     -0.05115027
C      -0.31718599     -1.82887128     -0.08009039
C      -1.12392920     -0.68224951     -0.08825203
C      -2.58102429     -0.88896910     -0.05788809
O      -3.20098177     -1.68731176     -0.73248018
O      -3.15047793     -0.16613943      0.92043489
C      -0.53665817      0.58888940     -0.09826026
C      -1.36338031      1.80616923     -0.23352515
O      -2.38212405      1.92167088     -0.88570667
O      -0.84441720      2.83385387      0.46123078
C       0.86310267      0.70899540     -0.06530386
H       4.57798859      0.81190655     -0.00298172
H       1.69213282     -2.60245350     -0.03781280
H      -0.77119370     -2.81881644     -0.08484186
H      -4.10798901     -0.36057782      0.83753269
H      -1.47926229      3.56683268      0.31458642
H       1.32009732      1.69673441     -0.07946558
