41
CC(C)(C#N)c1cc(Cn2cncn2)cc(C(C)(C)C#N)c1
C      -1.53852454      3.10771467     -1.44617872
C      -2.11967886      2.27117963     -0.28677140
C      -3.51010936      1.76103831     -0.72520656
C      -2.33525621      3.16212987      0.88690254
N      -2.48727012      3.86672067      1.79758499
C      -1.11717676      1.15038557      0.06059273
C       0.11012965      1.47132528      0.67287267
C       1.05040327      0.48372188      0.99574786
C       2.35245711      0.85315333      1.66781327
N       3.48678760      0.62413064      0.79282064
C       3.94712697      1.43348345     -0.19894987
N       5.01419451      0.89591478     -0.74333306
C       5.16911916     -0.26279368     -0.03657712
N       4.26015324     -0.47417408      0.91965912
C       0.76695254     -0.85669987      0.69097488
C      -0.43066187     -1.22819574      0.06234992
C      -0.76311132     -2.69494962     -0.28500471
C       0.43876329     -3.65779068     -0.16386728
C      -1.86253036     -3.18832446      0.67885234
C      -1.26632391     -2.80505207     -1.68251598
N      -1.68077595     -2.88849258     -2.76432748
C      -1.36120154     -0.20435899     -0.23314336
H      -2.22314176      3.91339183     -1.73855988
H      -1.35631495      2.48629865     -2.33115390
H      -0.58714562      3.58179440     -1.17582880
H      -3.45767420      1.18191485     -1.65437648
H      -4.19997719      2.59499107     -0.90721089
H      -3.96877813      1.12921550      0.04542861
H       0.33849401      2.51078902      0.91141123
H       2.37278443      1.91072439      1.95503276
H       2.49197039      0.26214181      2.58039775
H       3.48350152      2.36985210     -0.47548523
H       5.96747886     -0.96966103     -0.22366178
H       1.51509938     -1.60404415      0.95317493
H       1.27469247     -3.33997874     -0.79925544
H       0.16683402     -4.67398254     -0.47677977
H       0.80263998     -3.72877248      0.86760466
H      -2.78514160     -2.60263610      0.58494354
H      -1.53482920     -3.11999629      1.72310151
H      -2.12764585     -4.23389912      0.47944115
H      -2.29631310     -0.48820948     -0.71400252
