54
CCCCCCCCCCCCCCCCCO
C       8.49477817      0.40854248     -0.13822394
C       7.65766383     -0.86116418     -0.12824759
C       6.28467970     -0.68298548      0.52331268
C       5.36443520      0.26374866     -0.25061956
C       3.97171904      0.32402245      0.38325245
C       3.05134238      1.27003396     -0.39124885
C       1.67973886      1.45697249      0.26371504
C       0.83303052      0.18146160      0.27815248
C      -0.56793504      0.45654368      0.83082443
C      -1.42371633     -0.80562503      0.97530382
C      -1.69586475     -1.57524957     -0.32117081
C      -2.36185757     -0.77074095     -1.44210910
C      -3.69894901     -0.11454992     -1.08155066
C      -4.77455486     -1.12244764     -0.66874008
C      -6.16198969     -0.49313333     -0.50376361
C      -6.23777161      0.51038590      0.65169407
C      -7.65995022      1.00596081      0.88862538
O      -8.12107774      1.71728372     -0.25092990
H       8.05066246      1.17723389     -0.77726197
H       8.60250482      0.81648775      0.87172554
H       9.49616287      0.19468877     -0.52560809
H       7.53921036     -1.22814970     -1.15437549
H       8.20551971     -1.63453430      0.42334698
H       5.80850159     -1.66894611      0.59247847
H       6.40960539     -0.32005833      1.55080556
H       5.27946673     -0.07406207     -1.29050281
H       5.79373365      1.27171848     -0.26943749
H       4.05654367      0.66220042      1.42299930
H       3.54344083     -0.68427691      0.40217389
H       2.92217103      0.90386033     -1.41703551
H       3.53040107      2.25424757     -0.46579002
H       1.14141069      2.23713599     -0.28887038
H       1.80917096      1.82782303      1.28777419
H       0.76353745     -0.21382902     -0.74122703
H       1.31697024     -0.58370052      0.89494932
H      -0.47621402      0.91832892      1.82208639
H      -1.08048763      1.18909494      0.19709666
H      -0.93181061     -1.48651565      1.68153280
H      -2.37702320     -0.52925568      1.44121308
H      -2.31751956     -2.44653861     -0.08206293
H      -0.75388670     -1.98693546     -0.70308863
H      -2.51570006     -1.43842928     -2.29933571
H      -1.67313979      0.00835243     -1.78975628
H      -4.04960900      0.44407393     -1.95834188
H      -3.54373871      0.62245509     -0.28694776
H      -4.49213174     -1.61588950      0.26811138
H      -4.84324290     -1.90648126     -1.43287749
H      -6.45724492     -0.00944027     -1.44255760
H      -6.88317912     -1.30015636     -0.32408082
H      -5.86320082      0.04544722      1.57074012
H      -5.59819000      1.37115539      0.42653050
H      -7.68188170      1.68252443      1.74880395
H      -8.33966988      0.16998929      1.08234570
H      -9.02486406      2.01696157     -0.05383215
