22
Clc1cccc(-c2cc(Cl)c(Cl)cc2Cl)c1
Cl      3.57238847      1.05218584     -2.48435461
C       2.79442195      0.48381748     -1.05842889
C       3.56114587      0.06974756      0.02807507
C       2.93003109     -0.38805644      1.18331054
C       1.53499381     -0.42982204      1.24666963
C       0.75206847     -0.01736083      0.15574238
C      -0.71515286     -0.05512749      0.23055591
C      -1.38536211      0.94354345      0.96171341
C      -2.78107556      0.95471417      1.06179860
Cl     -3.50994768      2.22237461      1.98101506
C      -3.53139938     -0.03962775      0.42848276
Cl     -5.25615192     -0.09094820      0.50848630
C      -2.88507897     -1.03990380     -0.29993035
C      -1.48983686     -1.04853860     -0.39776946
Cl     -0.76432868     -2.33165305     -1.30388384
C       1.40099414      0.44441665     -1.00012059
H       4.64645340      0.09998002     -0.01952756
H       3.52323060     -0.71497934      2.03393016
H       1.05947799     -0.79518922      2.15548658
H      -0.80790425      1.72509790      1.45491570
H      -3.46770494     -1.81629895     -0.79093265
H       0.81873742      0.77162803     -1.85876269
