31
O=C(Cn1ccnc1[N+](=O)[O-])NCc1ccccc1
O       1.37574128     -1.48191090     -1.96211634
C       1.10547459     -0.45564180     -1.34399160
C       2.11510695      0.65783428     -1.15465828
N       3.18478912      0.26668160     -0.25498632
C       4.38871514     -0.25215065     -0.67624084
C       5.13548203     -0.42809063      0.46471844
N       4.43367141     -0.02802056      1.57038292
C       3.26377671      0.37542826      1.11053363
N       2.21817641      0.86846932      1.97018637
O       1.08676993      0.99481383      1.47673683
O       2.51536427      1.13577775      3.14034015
N      -0.12510229     -0.22296208     -0.77404243
C      -1.13617613     -1.25586119     -0.77434942
C      -2.44370963     -0.71626711     -0.26379398
C      -2.72642762     -0.71699817      1.10981177
C      -3.92770862     -0.18856445      1.58488411
C      -4.85350900      0.35149522      0.69414158
C      -4.57810733      0.36775492     -0.67192433
C      -3.37706820     -0.15934634     -1.14921616
H       2.55686641      0.88646314     -2.13183547
H       1.66060128      1.58600375     -0.79861085
H       4.60145711     -0.45561838     -1.71805311
H       6.14149414     -0.82175538      0.54645284
H      -0.17474490      0.45271816     -0.01370831
H      -0.78516177     -2.08124286     -0.14345928
H      -1.24617201     -1.65565654     -1.78939605
H      -2.01103060     -1.12834138      1.81903219
H      -4.14026725     -0.19600537      2.65097743
H      -5.78859617      0.76285483      1.06530500
H      -5.29830478      0.79347107     -1.36587301
H      -3.17140046     -0.13270911     -2.21724747
