22
OCCCCCCO
O       3.44889676     -0.57707802     -0.81760100
C       3.11069108      0.50253695      0.04116198
C       1.79840458      0.20701826      0.75708403
C       0.62194048      0.08395277     -0.21565686
C      -0.69007003     -0.17046963      0.52980672
C      -1.86398786     -0.30909532     -0.44359004
C      -3.17817146     -0.58907145      0.27673842
O      -3.53401221      0.49664825      1.12160046
H       4.29853218     -0.35410340     -1.23471633
H       3.91590056      0.62638052      0.77220531
H       3.03420082      1.41718030     -0.55544981
H       1.89494017     -0.73187605      1.31578973
H       1.59789662      1.00565459      1.48055858
H       0.53579639      1.00475667     -0.80527800
H       0.80521531     -0.73568916     -0.92060507
H      -0.60099616     -1.08552320      1.12790093
H      -0.87841687      0.65468592      1.22694566
H      -1.95677842      0.61801514     -1.02207647
H      -1.66348891     -1.12263497     -1.15027720
H      -3.98614160     -0.73904833     -0.44643273
H      -3.10292277     -1.49118603      0.89183916
H      -3.60742864      1.28894619      0.56278076
