42
CCOC(=O)C(C)(C(=O)NC(=O)NC)C1=CCCCC1
C      -2.88158179      2.19281112     -2.13114538
C      -2.35820897      2.92055283     -0.90835698
O      -1.77928361      1.98210145      0.01078161
C      -0.46735555      1.66787092     -0.18970446
O       0.23093574      2.15312593     -1.07363751
C       0.02990745      0.63310252      0.82342760
C      -0.07929318      1.29216516      2.21503158
C       1.52555842      0.24368727      0.67947660
O       1.97669858     -0.77008390      1.22664526
N       2.35832236      1.15491174      0.05458409
C       3.61239194      0.87943938     -0.42709491
O       4.01770589      1.42833797     -1.44743600
N       4.34178383     -0.01831742      0.29638179
C       5.60405255     -0.50933318     -0.18529948
C      -0.80719485     -0.65352479      0.62323488
C      -1.54854929     -1.23395339      1.59039346
C      -2.38015364     -2.47159346      1.39941419
C      -2.56521097     -2.86014121     -0.06446961
C      -1.25956131     -2.71154247     -0.83117287
C      -0.75128082     -1.26987754     -0.76839250
H      -2.06649552      1.70346564     -2.67485802
H      -3.38537998      2.88648297     -2.81011098
H      -3.58698972      1.40914341     -1.83850670
H      -3.18721685      3.40894907     -0.38665517
H      -1.64306250      3.70353002     -1.18237167
H       0.31586406      0.64224522      3.00336287
H      -1.11428240      1.54532279      2.47421605
H       0.49631168      2.22477351      2.25043387
H       1.90315713      1.82640730     -0.56088844
H       3.79009385     -0.63109365      0.89440849
H       6.21273093      0.31655028     -0.56398961
H       5.41874543     -1.22311278     -0.99223151
H       6.11934791     -1.00618268      0.63908296
H      -1.57623831     -0.82556746      2.59699932
H      -1.89960621     -3.29437063      1.94185971
H      -3.36560929     -2.31941059      1.85546405
H      -2.92923649     -3.89119522     -0.13236108
H      -3.33263643     -2.22128215     -0.52039700
H      -0.50565403     -3.38761629     -0.40909212
H      -1.40239496     -3.00471832     -1.87732333
H      -1.35530675     -0.65439386     -1.44557181
H       0.27417569     -1.25766552     -1.15413126
