44
CCCCCCC(C)OC(=O)COc1nc(F)c(Cl)c(N)c1Cl
C      -4.70183916      1.71586401     -2.00384448
C      -3.95325228      0.51935675     -1.43667963
C      -2.49308904      0.86425713     -1.14257594
C      -1.66862540     -0.33639486     -0.66983184
C      -2.14349317     -0.99686376      0.62848424
C      -2.24336749     -0.07163548      1.84962360
C      -0.93056547      0.63654041      2.21185231
C      -1.08970260      1.45445196      3.48916732
O       0.07401638     -0.37059164      2.43162952
C       1.34899662     -0.03511477      2.07926323
O       1.70466698      1.06681408      1.68019932
C       2.26533386     -1.23957630      2.27728091
O       3.55437082     -1.11351887      1.68528315
C       3.53093555     -1.07285282      0.30320421
N       2.38697153     -1.42561163     -0.32532152
C       2.40618523     -1.37904861     -1.67541406
F       1.27071459     -1.73622179     -2.29695327
C       3.50946389     -0.99754199     -2.43191075
Cl      3.41609642     -0.98912323     -4.15771353
C       4.68354908     -0.60502694     -1.76926147
N       5.87242713     -0.34519685     -2.49381118
C       4.69771463     -0.68798092     -0.36434967
Cl      6.13502354     -0.28256849      0.51485315
H      -5.74432621      1.44994816     -2.20496971
H      -4.69452950      2.55299682     -1.29848664
H      -4.25039226      2.05270476     -2.94248545
H      -4.45924628      0.19167406     -0.52233897
H      -4.00370515     -0.30865075     -2.15306058
H      -2.02745111      1.25575850     -2.05592514
H      -2.44343903      1.67137594     -0.40288233
H      -1.66550241     -1.09704760     -1.46090925
H      -0.62486974     -0.02044745     -0.55665205
H      -1.46132500     -1.82461927      0.86005060
H      -3.12320469     -1.46106252      0.46377697
H      -3.03403876      0.67095758      1.69191842
H      -2.56134039     -0.69224318      2.69778862
H      -0.64689441      1.30488900      1.39070359
H      -1.86949644      2.21413456      3.37897213
H      -0.15066884      1.95647456      3.74503267
H      -1.34262983      0.81048959      4.33864982
H       1.77261834     -2.15919912      1.93801614
H       2.42458997     -1.33807119      3.35692867
H       6.55737443      0.20207295     -1.97460682
H       5.71594567     -0.00455079     -3.44059322
