44
CN1CCCC(CN2c3ccccc3Sc3ccccc32)C1
C       4.86915609      0.81003249     -0.49005936
N       3.60999420      0.49963708      0.18709735
C       3.72790636     -0.75624342      0.93940810
C       2.43459614     -1.07038662      1.68962067
C       1.24008009     -1.11684483      0.74072786
C       1.15337977      0.17778580     -0.07823863
C       0.02588321      0.16456873     -1.13779487
N      -1.33540616      0.14560097     -0.54319592
C      -2.03667645     -1.09893679     -0.50321374
C      -1.46996568     -2.31626798     -0.95061003
C      -2.15379854     -3.54012440     -0.91480445
C      -3.44389514     -3.59791484     -0.42395000
C      -4.03840944     -2.42956392      0.03093858
C      -3.35240526     -1.19570821     -0.00302556
S      -4.28196645      0.17621572      0.62883611
C      -3.15438130      1.52966354      0.43413663
C      -3.65508125      2.77817609      0.86267696
C      -2.88936549      3.93265343      0.77158885
C      -1.61254412      3.84672233      0.24982116
C      -1.11203474      2.60929077     -0.17751684
C      -1.85733235      1.40654659     -0.10374418
C       2.50167193      0.44527419     -0.77638375
H       4.80056110      1.77352119     -1.00723833
H       5.14453478      0.04350387     -1.22341626
H       5.68444049      0.90195142      0.23614808
H       3.97675527     -1.59040937      0.27011702
H       4.53832276     -0.67491411      1.67393692
H       2.53192707     -2.03208449      2.20610858
H       2.26056936     -0.30952532      2.46109401
H       1.35329543     -1.97940608      0.07376967
H       0.32631495     -1.26739273      1.32529954
H       0.97597107      0.99629365      0.63087896
H       0.12130127      1.03299221     -1.80311000
H       0.19553547     -0.64742624     -1.85047674
H      -0.46114225     -2.37745371     -1.33894520
H      -1.66549816     -4.44365991     -1.27127318
H      -3.98364905     -4.53958490     -0.39047545
H      -5.05386413     -2.48088133      0.42007649
H      -4.65966410      2.85251289      1.27546730
H      -3.28812838      4.88537319      1.10717737
H      -0.99315788      4.73684298      0.17304936
H      -0.09901932      2.63671729     -0.56384269
H       2.68900064     -0.32499826     -1.53708326
H       2.43618821      1.40785106     -1.29957712
