30
c1ccc2c(c1)c1ccccc1c1ccccc21
C      -3.45622617     -1.50278959      0.33371246
C      -3.76118464     -0.16150767      0.37767552
C      -2.73116808      0.77297270      0.28301926
C      -1.35904297      0.41531712      0.14113642
C      -1.04418988     -0.96948332      0.09574586
C      -2.12506987     -1.89278984      0.19563994
C       0.32048583     -1.39088853     -0.04601774
C       0.69717729     -2.76428723     -0.09753379
C       2.01653701     -3.19275840     -0.23479246
C       3.02009671     -2.25554004     -0.32675660
C       2.69173147     -0.90159520     -0.28030778
C       1.35660888     -0.42326376     -0.14096417
C       1.03856234      0.97557953     -0.09511791
C       2.03398933      1.99131923     -0.18548624
C       1.74464349      3.35425990     -0.14288082
C       0.43612531      3.75832692     -0.00695496
C      -0.56665544      2.79438850      0.08466576
C      -0.31241214      1.39275473      0.04521957
H      -4.24122938     -2.25016527      0.40550935
H      -4.79089844      0.16739619      0.48474953
H      -3.03973463      1.81307394      0.32437709
H      -1.95349340     -2.96447904      0.16778209
H      -0.04505888     -3.55379156     -0.03046296
H       2.24708986     -4.25373257     -0.26849272
H       4.05593377     -2.56446974     -0.43425119
H       3.52956446     -0.21549843     -0.35803577
H       3.08478774      1.74072558     -0.29391400
H       2.54379868      4.08632500     -0.21625785
H       0.18529488      4.81462451      0.02874326
H      -1.57606315      3.17997633      0.19025084
