39
CC(=O)CC(c1ccc(Cl)cc1)c1c(O)c2ccccc2oc1=O
C      -1.19980144      4.35736957     -0.11579100
C      -0.54230871      3.08622312      0.35576218
O       0.66167946      3.04867788      0.62322370
C      -1.45456327      1.88601946      0.54673748
C      -0.66589750      0.60956434      0.90416276
C      -1.50389804     -0.50013536      1.55081596
C      -0.86879846     -1.41145075      2.41538769
C      -1.58736851     -2.44301976      3.02434486
C      -2.94834678     -2.57941409      2.76956269
Cl     -3.83653926     -3.84909446      3.51757378
C      -3.59408572     -1.69788791      1.90823194
C      -2.87558872     -0.66246459      1.30217931
C       0.18264153      0.08368262     -0.25213760
C       1.52566398      0.16137876     -0.27430392
O       2.25567148      0.85029641      0.67253811
C       2.31105543     -0.49995047     -1.31064019
C       3.71033836     -0.48864111     -1.34177811
C       4.40447136     -1.16367526     -2.35237770
C       3.70536192     -1.85804323     -3.33991766
C       2.31266855     -1.87602028     -3.32012902
C       1.63725401     -1.19744451     -2.30584776
O       0.23446672     -1.22993075     -2.33608277
C      -0.52629642     -0.54585366     -1.39815658
O      -1.74055114     -0.44289562     -1.53860339
H      -0.43663082      5.06856867     -0.44606832
H      -1.85622384      4.14251449     -0.96203749
H      -1.77523280      4.79339482      0.70435242
H      -2.14017741      2.14615438      1.36324786
H      -2.04674918      1.75848945     -0.36440494
H       0.00741501      0.91228582      1.71975990
H       0.19858501     -1.32336496      2.61927032
H      -1.07834156     -3.13252239      3.69179746
H      -4.65455802     -1.81211881      1.69643909
H      -3.40277431     -0.00761544      0.61164740
H       1.81929002      1.72301302      0.80576117
H       4.27287474      0.04072594     -0.57467294
H       5.49165838     -1.14927987     -2.36334468
H       4.24490299     -2.38566072     -4.12148267
H       1.75873294     -2.41187475     -4.08501933
