13
O=C1C(Br)=CC(=NCl)C=C1Br
O       1.11057630      2.68769037      0.09389937
C       0.60638388      1.57018548      0.05236536
C       1.43657786      0.33242561      0.08790110
Br      3.29610295      0.52957677      0.19919239
C       0.88121852     -0.88448625      0.04230344
C      -0.58918182     -1.09106104     -0.04624149
N      -1.26771487     -2.19511455     -0.09786813
Cl     -0.29408750     -3.62477533     -0.05595697
C      -1.39926244      0.15232562     -0.08053699
C      -0.86768752      1.37757066     -0.03624571
Br     -1.95557725      2.89883857     -0.08388638
H       1.51693680     -1.76115008      0.07027527
H      -2.47428490      0.00797417     -0.14520126
