22
CN(C)c1ncnc2nccnc12
C      -1.93772859     -0.95734186      0.76358344
N      -1.66468355      0.26074805      0.00623697
C      -2.72894645      0.70099971     -0.89198934
C      -0.34975430      0.43956274     -0.48409165
N      -0.24272029      1.07122493     -1.67754114
C       0.97875342      1.27662269     -2.16413278
N       2.11507668      0.91871560     -1.58158705
C       2.01775720      0.31419709     -0.40695344
N       3.18071727     -0.02233587      0.16212965
C       3.15045714     -0.63065667      1.36502462
C       1.97242137     -0.91459086      2.00749101
N       0.78502837     -0.59900539      1.46122305
C       0.79497917      0.02693551      0.23571912
H      -1.47921110     -1.83845785      0.30044830
H      -1.60482653     -0.85915534      1.80101757
H      -3.01574745     -1.15062512      0.81764514
H      -2.77528971      0.07617488     -1.79126703
H      -2.60489489      1.75089960     -1.18190452
H      -3.70125340      0.63855904     -0.38989208
H       1.05049129      1.78073271     -3.12163455
H       4.11296332     -0.88176995      1.79548858
H       1.94641104     -1.40143364      2.97498613
