55
O=S(=O)(NCC(c1ccccc1)N1CCCCCC1)c1ccccc1OC(F)(F)F
O       2.33614975     -0.84119841      2.08143534
S       2.00341737      0.55816431      1.93652838
O       1.64525568      1.35926466      3.08799601
N       0.73274141      0.71223860      0.86053203
C       0.54907026     -0.32262995     -0.18058419
C      -0.82160827     -0.08710021     -0.89177276
C      -1.09917923     -1.09600607     -2.00448574
C      -0.91702125     -2.47852419     -1.83998596
C      -1.17275007     -3.36636084     -2.88832629
C      -1.61426835     -2.88939122     -4.11856470
C      -1.80267241     -1.52309685     -4.30280122
C      -1.54496344     -0.63499029     -3.25668250
N      -1.92652294      0.11655378      0.09630263
C      -2.30198239     -1.06362031      0.87427248
C      -2.51079312     -0.70007091      2.34891884
C      -3.77343325      0.09009589      2.67538800
C      -3.97507482      1.36183848      1.85591771
C      -4.28917632      1.05310991      0.39603001
C      -3.05969575      0.83862827     -0.49265225
C       3.31841923      1.39623095      1.08941492
C       3.52165704      2.75685773      1.36252885
C       4.56037401      3.44815042      0.73897376
C       5.39431246      2.78661061     -0.15964064
C       5.19762730      1.43184236     -0.42968874
C       4.17596413      0.72259139      0.21421661
O       3.97553616     -0.59179917     -0.10322958
C       5.00070945     -1.43272160      0.42715292
F       5.30150121     -1.11749167      1.70469123
F       4.58187763     -2.71620042      0.38043599
F       6.12025095     -1.33455550     -0.32537198
H      -0.13988926      1.00541097      1.31147838
H       1.36190175     -0.25692220     -0.91131733
H       0.57978707     -1.31273152      0.28297611
H      -0.67971588      0.88790283     -1.38402138
H      -0.57182043     -2.89249293     -0.89655512
H      -1.02602320     -4.43334944     -2.74189061
H      -1.81336800     -3.58180621     -4.93167826
H      -2.14956957     -1.14691930     -5.26223138
H      -1.69808743      0.42829535     -3.42719300
H      -1.49655215     -1.80407704      0.87646712
H      -3.17772910     -1.57517007      0.45635653
H      -1.63726546     -0.14665883      2.71692974
H      -2.53807063     -1.63047119      2.93055289
H      -3.74197329      0.36065670      3.73846521
H      -4.64691363     -0.56331024      2.55531832
H      -3.11048905      2.02954422      1.94604322
H      -4.83201067      1.89773696      2.28309838
H      -4.85933856      1.89193644     -0.02401161
H      -4.94986620      0.17953864      0.33271635
H      -3.41393080      0.34109522     -1.40352401
H      -2.70232974      1.83141141     -0.79659614
H       2.87610013      3.28468118      2.06184058
H       4.71800865      4.50123821      0.95618239
H       6.19726855      3.32849661     -0.65455745
H       5.84615448      0.93954448     -1.15179810
