38
CC(C)(CCC(C)(C)CC(=O)O)CC(=O)O
C       1.43516728      1.88480487      1.63770653
C       1.70789457      1.12015254      0.32587566
C       1.46859548      2.08239718     -0.85321423
C       0.78764894     -0.13259455      0.21824340
C      -0.72426812      0.13867345      0.32691266
C      -1.65028426     -1.09255476      0.09212183
C      -1.27306264     -2.24619476      1.04439588
C      -1.53053739     -1.60166502     -1.35677928
C      -3.12171502     -0.70815180      0.39876629
C      -3.67686006      0.40118882     -0.45557681
O      -3.57450413      1.59760917     -0.24314511
O      -4.32546464     -0.05037922     -1.54495881
C       3.19405506      0.67640852      0.35481763
C       3.64904722     -0.08107255     -0.86514019
O       3.97912049      0.39953370     -1.93597236
O       3.65342344     -1.41480647     -0.68128579
H       1.52525066      1.22279696      2.50616917
H       0.43340926      2.32664450      1.65245931
H       2.14867496      2.70653255      1.76995148
H       0.48516870      2.56035746     -0.79343185
H       2.21498313      2.88496555     -0.86336751
H       1.52207617      1.56205550     -1.81519820
H       1.07638017     -0.83656668      1.00831995
H       0.98792030     -0.63159165     -0.73595799
H      -0.99279880      0.91956755     -0.39218638
H      -0.93842139      0.54178086      1.32427856
H      -1.98336830     -3.07673009      0.95782155
H      -1.27635698     -1.91288459      2.08817616
H      -0.28048113     -2.65158119      0.82207568
H      -1.67466717     -0.79239845     -2.08046710
H      -2.27871910     -2.37526581     -1.56446352
H      -0.54859859     -2.04544088     -1.55129911
H      -3.22747921     -0.39054428      1.44443907
H      -3.78119042     -1.57989082      0.29302371
H      -4.61920772      0.76565757     -2.00171731
H       3.85886682      1.54430411      0.45581567
H       3.39115625      0.05545009      1.23884245
H       3.95914619     -1.77056739     -1.54195898
