45
OCC1OC(OC2(CO)OC(CO)C(O)C2O)C(O)C(O)C1O
O      -1.26147406     -0.47728955      2.44901408
C      -2.32137471     -0.95710495      1.61508876
C      -1.76312035     -1.94065807      0.57255793
O      -0.57847988     -1.40817019     -0.04781292
C      -0.82271852     -0.30591179     -0.92654227
O       0.42888751      0.10943616     -1.46946759
C       1.16394434      1.00761991     -0.61269304
C       0.76342495      2.46874548     -0.94280253
O      -0.58132599      2.74725138     -0.51691614
O       0.94519875      0.76571904      0.80228536
C       2.22816817      0.47826224      1.40795703
C       2.26170152      1.03440863      2.82793823
O       3.56732143      0.91937019      3.37880766
C       3.29543863      1.04080108      0.46742034
O       3.45814650      2.44968457      0.64409857
C       2.65782952      0.71764633     -0.87369386
O       3.23609673      1.39879120     -1.97967674
C      -1.72797870     -0.75082988     -2.08915201
O      -1.10207896     -1.79114601     -2.87105859
C      -3.03845188     -1.30324131     -1.53098532
O      -3.82935101     -1.86942517     -2.58944475
C      -2.78115115     -2.39602022     -0.48252296
O      -4.01978289     -2.78128258      0.11676665
H      -0.49694783     -0.31607896      1.85797691
H      -3.06913769     -1.43773917      2.25314313
H      -2.78697678     -0.08336848      1.15106336
H      -1.42812046     -2.82370830      1.13073662
H      -1.31019894      0.50973324     -0.38885080
H       0.79928488      2.64631601     -2.02228392
H       1.40080305      3.20054916     -0.44209193
H      -0.57106230      2.63665951      0.45254431
H       2.32756543     -0.61481907      1.44404526
H       1.55545750      0.48481267      3.45997665
H       1.95814178      2.08677456      2.84777861
H       3.49275409      1.15040656      4.32274341
H       4.27554274      0.56806595      0.58548198
H       4.04206769      2.55977385      1.41832541
H       2.78756413     -0.35699684     -1.06523375
H       2.76054162      1.10595255     -2.77741658
H      -1.91150632      0.07673911     -2.78234978
H      -0.15310726     -1.55735465     -2.89361669
H      -3.63841235     -0.49790287     -1.09199828
H      -3.18281376     -2.29815575     -3.18958658
H      -2.38895209     -3.28598704     -0.99078462
H      -4.64135708     -2.91032852     -0.62876862
