37
O=C(COC(=O)c1ccccc1)NC(CO)(CO)CO
O      -0.52441412      0.69570301      0.71564795
C      -0.53816900      0.57327276     -0.50722922
C       0.71060632      0.74152390     -1.37916116
O       1.92597928      0.59187969     -0.64896483
C       2.20106902     -0.69125922     -0.30349906
O       1.54713120     -1.66896695     -0.63230912
C       3.43560462     -0.76405991      0.52353871
C       3.90770752     -2.03005067      0.89668813
C       5.06280957     -2.15115197      1.67186362
C       5.75132419     -1.00932644      2.07937376
C       5.28670360      0.25411448      1.71518041
C       4.13123932      0.37946328      0.93956715
N      -1.67912703      0.27559426     -1.21293298
C      -3.05164939      0.19588108     -0.64267231
C      -3.51842880      1.60373015     -0.18638157
O      -3.60838343      2.50151546     -1.30385316
C      -3.96551163     -0.32207558     -1.78749209
O      -3.77670783      0.44514682     -2.98324341
C      -3.14795737     -0.81250970      0.53294611
O      -2.69818260     -0.27689958      1.77348028
H       0.69376801      1.76143597     -1.77797788
H       0.68646452      0.05430455     -2.23335433
H       3.37561573     -2.92749027      0.58616164
H       5.42309722     -3.13606084      1.95890583
H       6.64949194     -1.10425073      2.68491949
H       5.82271432      1.14334458      2.03820373
H       3.78355568      1.37391436      0.67218018
H      -1.65956734      0.39106054     -2.22297469
H      -4.51162953      1.55068297      0.27272905
H      -2.82512133      2.04545759      0.53649978
H      -3.76850251      3.38607639     -0.92413762
H      -3.72447404     -1.36132283     -2.03734352
H      -5.02423315     -0.27504303     -1.51028519
H      -3.84000449      1.38717504     -2.70694592
H      -2.57530321     -1.72271070      0.32191047
H      -4.19101040     -1.10846192      0.69073888
H      -1.76650488      0.01036350      1.63315254
