12
C/C(Br)=C/C(=O)O
C      -2.06626596      0.19251553      0.23203631
C      -0.73014981     -0.32906991     -0.21559783
Br     -0.87208722     -1.79160431     -1.37489366
C       0.41644103      0.23143929      0.20176599
C       1.78085001     -0.18305752     -0.16142373
O       2.14652407     -1.08389862     -0.88665750
O       2.66568409      0.62083161      0.45589357
H      -2.62601665     -0.58286064      0.76624970
H      -1.96638914      1.04771263      0.90949821
H      -2.66035668      0.52434241     -0.62636923
H       0.37892623      1.08046877      0.87771616
H       3.53284003      0.27318074      0.15811001
