15
FC(F)(F)c1ccc(Cl)cc1
F      -2.78103171     -1.14992734     -0.51896939
C      -2.24170102     -0.06782073      0.10842332
F      -2.84320670      1.02113810     -0.44638725
F      -2.68015557     -0.12341244      1.39569606
C      -0.73441877     -0.02163920      0.01817674
C      -0.05561241      1.20801969      0.03467409
C       1.33988428      1.24953652     -0.02750090
C       2.06595049      0.06249798     -0.09975984
Cl      3.78362637      0.11422611     -0.17571530
C       1.40906704     -1.16627631     -0.10824034
C       0.01360023     -1.20884056     -0.04610155
H      -0.61401069      2.14167032      0.09445989
H       1.85262255      2.20816323     -0.01760803
H       1.97578467     -2.09254573     -0.16134302
H      -0.49039876     -2.17478964     -0.04980449
