29
Cn1cnc2cc(C#Cc3ccccc3)cnc21
C       5.75534252     -0.79272946      0.67367921
N       4.73409667      0.02817057      0.08126382
C       4.92616179      1.12372337     -0.71324936
N       3.78475835      1.65760520     -1.09733513
C       2.81538982      0.87002798     -0.52408774
C       1.41900134      0.94456183     -0.57460758
C       0.70588433     -0.02762882      0.13180332
C      -0.72316939     -0.01857546      0.12882848
C      -1.92450554     -0.01170962      0.12686982
C      -3.35470119     -0.00387297      0.12478450
C      -4.05689384     -0.70959605     -0.85508552
C      -5.45322725     -0.70203224     -0.85604759
C      -6.14784210      0.01036423      0.12148754
C      -5.44831021      0.71589939      1.10049026
C      -4.05197348      0.70929636      1.10277557
C       1.40738611     -1.00634290      0.83939358
N       2.76017913     -1.12207142      0.91987908
C       3.38783221     -0.15726060      0.21903295
H       5.63805700     -1.81522544      0.30566953
H       6.74052102     -0.41062780      0.39425075
H       5.64171996     -0.76090335      1.76030788
H       5.90920502      1.48967514     -0.98094523
H       0.92934901      1.72747668     -1.14081914
H      -3.52344895     -1.26679826     -1.62136317
H      -5.99848492     -1.25107361     -1.61940130
H      -7.23495159      0.01632665      0.11989946
H      -5.98973641      1.27170850      1.86167082
H      -3.51467696      1.26277039      1.86906393
H       0.86703755     -1.77115829      1.39506981
