20
CC1(C)OC(=O)C[C@@H]1C(=O)[O-]
C       0.79934122      0.46802168      1.44575280
C       0.62474739      0.16684430     -0.04892421
C       1.87717207     -0.51438006     -0.60223313
O       0.50152588      1.44055744     -0.72476874
C      -0.81717399      1.71738633     -0.94179192
O      -1.22161539      2.77071481     -1.41186971
C      -1.66945589      0.57123363     -0.50295234
C      -0.66288648     -0.55812865     -0.41437200
C      -1.06028625     -1.69481195      0.51559879
O      -2.25646881     -1.68475984      0.91329791
O      -0.14466616     -2.52684727      0.76172261
H       0.97854363     -0.43832111      2.03156610
H      -0.07743550      0.97877227      1.85856856
H       1.64688811      1.14559309      1.60326675
H       2.75945701      0.11898719     -0.45269251
H       1.79397354     -0.66788601     -1.68423010
H       2.06742431     -1.48105680     -0.12794542
H      -2.43677301      0.36001502     -1.25292506
H      -2.13460760      0.82125409      0.45514637
H      -0.56770410     -0.99318815     -1.42021477
