21
C=CC(=O)NCNC(=O)C=C
C      -4.26525784      1.06184059      0.51370239
C      -3.40263313      0.08049167      0.22093762
C      -2.05710435      0.39807547     -0.32058456
O      -1.67418944      1.54313673     -0.52099312
N      -1.29344973     -0.71582061     -0.54115915
C       0.02742974     -0.62672644     -1.08755008
N       0.94899818     -0.24675570     -0.06462296
C       2.28154783     -0.53513358     -0.19353848
O       2.74680280     -1.27801099     -1.04759230
C       3.12173092      0.16187005      0.81353760
C       4.45349240      0.02373023      0.80067566
H      -5.25112946      0.83902747      0.90701793
H      -4.00821435      2.10768474      0.36537638
H      -3.67445027     -0.95628837      0.37071051
H      -1.63145908     -1.63386956     -0.29590786
H       0.06017863      0.12784742     -1.88044056
H       0.29269464     -1.60124399     -1.50884294
H       0.66267922      0.53823563      0.50247602
H       2.63621896      0.77833523      1.55916579
H       5.07321034      0.52781165      1.53402325
H       4.95290400     -0.59423763      0.05884175
