46
Cc1ccccc1COC1CC2(C(C)C)CCC1(C)O2
C       3.70811552      1.05437779      1.63614291
C       3.99199984      0.31941691      0.35450173
C       5.19059575      0.57752013     -0.33045299
C       5.48317703     -0.07145333     -1.52964111
C       4.57995641     -0.98390247     -2.06347547
C       3.38594938     -1.25253166     -1.39482372
C       3.08005773     -0.61735429     -0.17814236
C       1.77316666     -0.94061280      0.50523934
O       0.87055676      0.14140326      0.29310582
C      -0.40162405     -0.07900495      0.88365856
C      -1.29187107     -1.02410071      0.06451042
C      -2.54604109     -0.16309726     -0.17983500
C      -3.86516499     -0.90830164     -0.42985914
C      -4.30021709     -1.76857202      0.76183198
C      -3.81661962     -1.76182516     -1.69825367
C      -2.21715901      0.90627475     -1.23998959
C      -1.32499959      1.87418305     -0.46415948
C      -1.25611076      1.20334413      0.91129468
C      -0.92295473      2.15008488      2.04332916
O      -2.59079789      0.64814537      1.02534298
H       4.51422927      1.75288847      1.88516533
H       2.78681756      1.63818588      1.54759796
H       3.61765079      0.34898694      2.46798379
H       5.90565521      1.29533827      0.06577030
H       6.41318546      0.14206221     -2.04951865
H       4.80177235     -1.48344916     -3.00257640
H       2.68728821     -1.96166615     -1.83342593
H       1.35137879     -1.86819626      0.10084106
H       1.93743170     -1.09670337      1.57771501
H      -0.28645565     -0.47155517      1.90304157
H      -1.51902117     -1.90209758      0.67708461
H      -0.83294604     -1.37027933     -0.86711224
H      -4.65405675     -0.15474656     -0.55937335
H      -4.34449145     -1.17898631      1.68299066
H      -3.62364252     -2.61261398      0.92625700
H      -5.30061368     -2.18074005      0.58851121
H      -3.58479041     -1.15312727     -2.57776771
H      -4.78504845     -2.24127798     -1.87791946
H      -3.06242623     -2.55195308     -1.62181739
H      -3.11916003      1.43350417     -1.57179672
H      -1.71999421      0.49370207     -2.12351918
H      -1.82084669      2.85041612     -0.40551937
H      -0.34725080      2.02185985     -0.93161668
H      -0.99312029      1.64071766      3.01061753
H      -1.63720195      2.97982360      2.08108161
H       0.08564178      2.56094117      1.93698039
