29
Oc1ccc(/C=C/c2cc(O)cc(O)c2)cc1
O       5.96260934      1.52030725     -0.46338053
C       4.65247227      1.14452204     -0.47970623
C       3.89075728      1.49915236     -1.58551145
C       2.54381975      1.13352379     -1.64448265
C       1.95180508      0.42253617     -0.59189072
C       0.53962118      0.03109688     -0.70556208
C      -0.31908202      0.02679673      0.32702266
C      -1.73079067     -0.36734023      0.21431922
C      -2.52806819      0.01369941     -0.87467048
C      -3.87058936     -0.36178554     -0.91775460
O      -4.67223650     -0.00940406     -1.96475257
C      -4.44262821     -1.10424001      0.10834240
C      -3.65448419     -1.46632653      1.19367027
O      -4.16574293     -2.18803514      2.23261773
C      -2.31206970     -1.10077059      1.25708599
C       2.74223420      0.06073019      0.50859832
C       4.09099232      0.42510751      0.56912882
H       6.36433126      1.20655845      0.36325847
H       4.34258379      2.05705111     -2.40060911
H       1.96037682      1.41756763     -2.51698052
H       0.21640702     -0.25979162     -1.70203217
H       0.00490127      0.31432167      1.32461653
H      -2.10195110      0.61026930     -1.67528088
H      -4.14894978      0.51164771     -2.59620293
H      -5.48939098     -1.38107438      0.04687235
H      -5.10239645     -2.37047305      2.04874105
H      -1.72402689     -1.40055064      2.12089242
H       2.31942130     -0.51951203      1.32528363
H       4.68007408      0.13441562      1.43293903
