19
CCNC(C)C(=O)O
C       1.82014331      0.63609394     -0.39906042
C       0.96010744     -0.42936305     -1.06244792
N      -0.48562836     -0.14680316     -1.06919288
C      -1.16449136     -0.19411997      0.26566035
C      -0.68724192     -1.27250923      1.23086145
C      -1.14828858      1.20546216      0.90504741
O      -1.35129126      1.45193260      2.08316034
O      -0.93118246      2.16926094     -0.02950405
H       1.61439936      0.72555746      0.67090486
H       1.66942286      1.61419408     -0.86702955
H       2.87900736      0.37895193     -0.50919702
H       1.16937356     -1.41349407     -0.62962025
H       1.27442856     -0.49564196     -2.11120483
H      -0.91812649     -0.88061915     -1.64008357
H      -2.22517679     -0.38150924      0.05158192
H      -0.70004476     -2.25949116      0.75685560
H      -1.34675982     -1.31937125      2.10491627
H       0.32155743     -1.07540375      1.60672725
H      -0.75020807      1.68687288     -0.87397800
