24
CC(C)CC(NC=O)C(=O)O
C       0.89012412      1.27742189      2.27821931
C       0.72481705      0.24319008      1.16131819
C       2.09640456     -0.13245799      0.59908798
C      -0.22405117      0.79468681      0.07793845
C      -0.53657954     -0.18595547     -1.05887771
N      -1.21132200     -1.38306890     -0.55782812
C      -1.03499103     -2.59514882     -1.17334355
O      -0.22006491     -2.83479862     -2.05130009
C      -1.46925301      0.49267970     -2.06434413
O      -2.68732986      0.39232820     -2.10485594
O      -0.82091792      1.30011449     -2.92784494
H      -0.07900926      1.53014937      2.72125347
H       1.52963046      0.88828875      3.07765735
H       1.34269704      2.20107309      1.90152187
H       0.27879614     -0.65478359      1.60627447
H       2.02366798     -0.96572526     -0.10617828
H       2.55899572      0.71470328      0.08159777
H       2.77202528     -0.44739814      1.40180189
H       0.20660179      1.71193418     -0.34586383
H      -1.16569724      1.09861933      0.55622769
H       0.36983901     -0.48242902     -1.59700922
H      -2.09177173     -1.24770096     -0.07434896
H      -1.72540789     -3.35993498     -0.77981670
H      -1.52720357      1.64421257     -3.51403505
