38
CCOC(=O)CCCCCCC(=O)OCC
C      -7.26835287      0.51263745     -0.36781006
C      -6.28621522     -0.62935189     -0.54155159
O      -4.96198828     -0.08305923     -0.54863220
C      -3.97724423     -1.01093166     -0.69709858
O      -4.15002991     -2.21648847     -0.81272317
C      -2.62358829     -0.34977972     -0.67004368
C      -2.13931985     -0.18734799      0.76623648
C      -0.82039602      0.58060644      0.87928808
C       0.36720824     -0.15984820      0.26019301
C       1.67522989      0.59843478      0.49424585
C       2.86378353     -0.13821253     -0.12120386
C       4.16226942      0.60128432      0.10147425
O       4.28163942      1.66965464      0.68353379
O       5.18662750     -0.10880706     -0.45169692
C       6.47353000      0.50234099     -0.29994553
C       7.50408477     -0.39425208     -0.95803159
H      -7.16221806      1.23930793     -1.18008277
H      -8.29772004      0.14367551     -0.35605739
H      -7.07412217      1.04921849      0.56678803
H      -6.39025641     -1.33615027      0.28931930
H      -6.47952513     -1.14269789     -1.49013021
H      -2.68678113      0.61625528     -1.18405334
H      -1.94014689     -0.97284077     -1.25688192
H      -2.03673783     -1.17312578      1.23702450
H      -2.90115377      0.34877961      1.34651487
H      -0.92774349      1.56675935      0.41133640
H      -0.61742909      0.75647007      1.94303977
H       0.21301565     -0.28299419     -0.81759052
H       0.44205493     -1.16357347      0.69560004
H       1.84027457      0.72850881      1.57116175
H       1.60071365      1.60466919      0.06311042
H       2.71375613     -0.24671680     -1.20116141
H       2.95526010     -1.13293189      0.32917042
H       6.47540155      1.48533453     -0.78411297
H       6.70655735      0.61408293      0.76490866
H       7.49975400     -1.38827861     -0.49868824
H       8.50696213      0.03231782     -0.86774529
H       7.27284581     -0.53294964     -2.01934958
