62
CCCCCCCCCC(=O)OOC(=O)CCCCCCCCC
C       8.25771351     -1.77870268     -2.27806866
C       8.01600434     -0.30833291     -1.97553071
C       7.26315833     -0.12436309     -0.65720691
C       7.02391396      1.35714484     -0.35810931
C       6.38015606      1.60706757      1.00931308
C       5.01315174      0.95131064      1.23176337
C       3.95257157      1.40623208      0.22627347
C       2.54697159      0.90570509      0.56877865
C       2.40452543     -0.60862735      0.46403629
C       0.96969198     -1.01243910      0.68094496
O       0.14775345     -1.14265700     -0.21813089
O       0.72547773     -1.17390365      2.01804532
O      -0.70709403     -1.45107271      2.15679507
C      -1.31770924     -0.25337515      2.41893984
O      -0.74220167      0.81347437      2.59458075
C      -2.81273604     -0.45223117      2.49275623
C      -3.58977878      0.76805751      2.00053975
C      -3.37989141      1.10962129      0.51996293
C      -3.74190943      0.00435910     -0.47756996
C      -5.17095933     -0.54129123     -0.38121009
C      -6.24380691      0.52059602     -0.63572129
C      -7.67253670     -0.02336431     -0.53521470
C      -8.02736690     -1.01424338     -1.64444152
C      -9.48869863     -1.42992229     -1.56927670
H       8.79840511     -1.88713207     -3.22345454
H       7.31132426     -2.32277739     -2.36285561
H       8.85453615     -2.24827312     -1.48945732
H       7.44342544      0.13883347     -2.79646904
H       8.97986161      0.21206480     -1.93042241
H       7.83765089     -0.57665237      0.16020956
H       6.30618138     -0.65527150     -0.71565465
H       7.98471289      1.88734470     -0.38087550
H       6.40994251      1.80214482     -1.14985903
H       6.28129382      2.69037839      1.15277473
H       7.06380971      1.25524257      1.79218914
H       4.67752091      1.20390557      2.24547035
H       5.12071122     -0.13809325      1.20579609
H       3.93010534      2.50262520      0.20066352
H       4.21644123      1.06945847     -0.78268199
H       2.26954148      1.23853094      1.57685663
H       1.83313342      1.38229672     -0.11538403
H       3.03287983     -1.13189771      1.19264628
H       2.70955915     -0.96541464     -0.52646070
H      -3.06240145     -0.65207315      3.54072072
H      -3.09666509     -1.33720615      1.91404717
H      -4.65705943      0.60794882      2.19190778
H      -3.30382224      1.64407634      2.59653950
H      -2.33100718      1.38620183      0.35707170
H      -3.95877127      2.01133871      0.28750905
H      -3.04107428     -0.83100161     -0.36196004
H      -3.57963795      0.39138454     -1.49160694
H      -5.33184625     -1.00616010      0.59780780
H      -5.26594896     -1.34272768     -1.12266181
H      -6.14493908      1.32508332      0.10173402
H      -6.09081283      0.97390283     -1.62241903
H      -8.36419237      0.82700254     -0.58284346
H      -7.81935649     -0.49383364      0.44450205
H      -7.40504721     -1.91173920     -1.56860772
H      -7.83267241     -0.56297472     -2.62388372
H      -9.72203836     -2.14057380     -2.36840420
H     -10.14951200     -0.56453920     -1.68138445
H      -9.71063215     -1.91046579     -0.61124536
