31
O=C1NC(c2ccccc2)(c2ccccc2)C(=O)N1[Na]
O      -0.59208349      4.21748298      0.80885472
C      -0.51155509      3.10262619      0.23487676
N      -0.24049016      1.86165853      0.86902555
C      -0.21718337      0.83725849     -0.13102001
C       1.13370831      0.20757867     -0.22786843
C       2.18445151      0.57302259      0.58332027
C       3.40586815     -0.05305968      0.43757145
C       3.54233922     -1.02704627     -0.51541596
C       2.47969303     -1.39341044     -1.33259703
C       1.26489323     -0.77264203     -1.18936350
C      -1.15470264     -0.25008334      0.23093587
C      -0.96838950     -0.85366020      1.45740047
C      -1.75595371     -1.87146856      1.92784642
C      -2.80191740     -2.33096919      1.13940508
C      -2.99266492     -1.72027183     -0.10396680
C      -2.18811360     -0.69781609     -0.55746503
C      -0.51003295      1.50995008     -1.38519550
O      -0.60844170      0.98169368     -2.53524636
N      -0.67647134      2.89424341     -1.13815772
Na     -1.10953131      4.44386492     -2.57180448
H      -0.09139101      1.77897348      1.90478823
H       2.04458830      1.34950188      1.32767151
H       4.20906352      0.26079728      1.09306891
H       4.49398408     -1.51298788     -0.62590220
H       2.58985387     -2.16762884     -2.08962898
H       0.44050410     -1.06576126     -1.82892591
H      -0.15992488     -0.52709794      2.10933941
H      -1.60918931     -2.35095802      2.90313338
H      -3.46230894     -3.13205171      1.45334808
H      -3.80522846     -2.07058710     -0.72644890
H      -2.33337356     -0.22115184     -1.52157928
