27
O=S(=O)(c1ccc(O)cc1)c1ccc(O)cc1
O       0.23467595     -0.04856593      2.86874130
S       0.10497579     -0.90970344      1.70727116
O       0.05602342     -2.35260832      1.85900243
C       1.46611038     -0.51723476      0.63191102
C       2.24341092     -1.54250823      0.08289409
C       3.30710888     -1.22087730     -0.76233448
C       3.58042970      0.11645074     -1.04147757
O       4.60928611      0.47338911     -1.86140516
C       2.81319530      1.13796489     -0.48824783
C       1.75004326      0.82458775      0.35800661
C      -1.37560034     -0.44162090      0.84014261
C      -1.74675935     -1.15523512     -0.30402742
C      -2.90415853     -0.78955437     -0.99057524
C      -3.67684456      0.27150384     -0.52655336
O      -4.79944157      0.58999390     -1.23123126
C      -3.31590096      0.97774047      0.61888118
C      -2.15769104      0.61839486      1.31078509
H       2.03268356     -2.58583612      0.30836936
H       3.90841601     -2.01890237     -1.18747747
H       5.07299925     -0.32939793     -2.15162257
H       3.04913372      2.17501960     -0.71235700
H       1.16109772      1.62421541      0.80076120
H      -1.15247873     -1.99350383     -0.65960338
H      -3.20867895     -1.33266485     -1.88145760
H      -5.25350141      1.32345248     -0.78447539
H      -3.92073323      1.80136457      0.98628194
H      -1.87780132      1.16356987      2.20979775
