19
CC(=O)Nc1ccccc1Cl
C       3.42505587      0.22715630     -0.42325357
C       1.98025076      0.21961520     -0.85694881
O       1.68019165      0.34564007     -2.03865154
N       1.11542567      0.03087081      0.20214758
C      -0.29856790     -0.03640483      0.17430136
C      -1.05071354      0.10034344     -0.99544065
C      -2.44802047      0.02494596     -0.95707599
C      -3.11099555     -0.18738529      0.24950618
C      -2.37768143     -0.32523955      1.42541090
C      -0.98257462     -0.24997221      1.38698855
Cl     -0.11759382     -0.42764732      2.87813593
H       3.80257251     -0.79853555     -0.40737297
H       4.01202610      0.82114034     -1.12974776
H       3.53684045      0.67464198      0.56857031
H       1.52422579     -0.08531651      1.12413794
H      -0.58156743      0.26806177     -1.96018248
H      -3.01630354      0.13358852     -1.87847361
H      -4.19643720     -0.24489174      0.27187243
H      -2.89613330     -0.49061140      2.36607620
