15
O=C(O)c1c(Cl)cccc1Cl
O      -2.51011383      0.37484410     -1.54104520
C      -1.99690567      0.15903226     -0.46218850
O      -2.69896387     -0.02074948      0.66880448
C      -0.56484262      0.05553980     -0.18866629
C       0.07687400     -1.18273587     -0.28631988
Cl     -0.76563903     -2.63172378     -0.70503960
C       1.45016775     -1.27588024     -0.03863100
C       2.18045779     -0.13665983      0.30166843
C       1.53914567      1.09910666      0.39413575
C       0.16610098      1.19889906      0.14765813
Cl     -0.56366031      2.75946088      0.27733342
H      -3.63567651      0.06484278      0.39167147
H       1.95805617     -2.23556428     -0.11066376
H       3.24888978     -0.21159123      0.49321297
H       2.11610971      1.98317918      0.65806957
