12
S=c1cccc[nH]1
S       3.05291026     -0.01320885     -0.01540789
C       1.38148280      0.02832208     -0.00596522
C       0.56785790      1.27749743      0.03470089
C      -0.77080468      1.19017946      0.03872317
C      -1.43169070     -0.09298583      0.00431429
C      -0.70347593     -1.21513845     -0.03220273
N       0.66787910     -1.15135155     -0.03707747
H       1.08147218      2.23085029      0.06015511
H      -1.38658165      2.08306137      0.06795777
H      -2.51591725     -0.12289995      0.00877025
H      -1.14966743     -2.20367525     -0.05902066
H       1.20653538     -2.01065075     -0.06494751
