57
CCCCCCC(=O)OCC(CC)(CO)COC(=O)CCCC
C      -9.08958219     -0.80712093      0.37437219
C      -8.11158029     -0.21573269     -0.62971815
C      -6.78537018      0.22758069     -0.00611438
C      -5.94472421     -0.94023912      0.51715473
C      -4.62177425     -0.50190119      1.15313111
C      -3.65400461      0.14838493      0.16490050
C      -2.30341258      0.40889404      0.78998976
O      -1.96635002      0.08988059      1.92222960
O      -1.49615564      1.03142909     -0.11497622
C      -0.18570794      1.41406195      0.34296497
C       0.90459792      0.39434061     -0.06938193
C       0.85741794      0.09083437     -1.59693913
C       1.06853324      1.28895357     -2.51507271
C       0.70086085     -0.95780039      0.65929809
O       0.64751843     -0.79879875      2.07162175
C       2.27110882      0.99218111      0.35210778
O       3.34315992      0.14094563     -0.08061562
C       4.58948515      0.61738039      0.20150706
O       4.82642669      1.69301930      0.73176036
C       5.62192587     -0.38964110     -0.24854364
C       7.04595677      0.09446672      0.01779204
C       8.07862849     -0.93431656     -0.44098190
C       9.49720191     -0.45577252     -0.17593387
H      -8.72478965     -1.75628015      0.77814512
H     -10.05161391     -1.00326063     -0.10997730
H      -9.26447064     -0.11929832      1.20755600
H      -8.58184156      0.65664256     -1.10056265
H      -7.92419095     -0.94339530     -1.42832175
H      -6.22256164      0.76858808     -0.77501065
H      -6.97981512      0.93835042      0.80580014
H      -6.51188119     -1.48831658      1.27823128
H      -5.74306636     -1.64595491     -0.29823423
H      -4.82004869      0.18770100      1.98420811
H      -4.14774234     -1.38785637      1.59547581
H      -3.50578998     -0.50830748     -0.69891870
H      -4.05358024      1.10890970     -0.17621485
H      -0.18209912      1.60006160      1.42427482
H       0.01751895      2.38952971     -0.11346581
H      -0.10904321     -0.36428345     -1.85029959
H       1.61464835     -0.66403769     -1.84654767
H       2.04828549      1.74928823     -2.36080742
H       0.29623041      2.04977410     -2.37155432
H       1.01955566      0.96606662     -3.56058733
H       1.52624513     -1.64453863      0.44174578
H      -0.21599296     -1.46172093      0.33325324
H      -0.27885872     -0.57113728      2.30536713
H       2.40361353      1.98606293     -0.09215661
H       2.32301089      1.10087545      1.44260731
H       5.48537471     -0.56339862     -1.32192850
H       5.44207429     -1.32636489      0.29113560
H       7.21537021      1.04597548     -0.50202817
H       7.17360510      0.29433898      1.08921543
H       7.95947097     -1.12902090     -1.51322908
H       7.91616459     -1.88431202      0.08165015
H       9.70195860      0.47930845     -0.70797113
H       9.66031215     -0.28582848      0.89345808
H      10.21978715     -1.20519046     -0.51526632
