55
CN(C)CCNC(=O)c1ccc(Nc2ncc3cc(-c4ccncc4)ccc3n2)cc1
C      -7.00148226      0.92935276     -1.90674338
N      -7.13925784     -0.52816730     -1.77636880
C      -7.85290992     -1.05277906     -2.94716203
C      -7.86617847     -0.89154257     -0.53705012
C      -7.09207844     -0.55287048      0.74958713
N      -5.71128532     -0.98625437      0.66663330
C      -4.83965910     -0.74977051      1.70427202
O      -5.18211996     -0.33240111      2.80394808
C      -3.40504173     -0.97969954      1.39934487
C      -2.98983195     -2.03695896      0.58946223
C      -1.62803228     -2.20767090      0.31724339
C      -0.65811261     -1.33415690      0.83938350
N       0.67901513     -1.53343277      0.48161719
C       1.83338638     -0.76677311      0.60684731
N       1.80274687      0.48569959      1.08358008
C       2.96652857      1.16109789      1.11306921
C       4.17154983      0.63794926      0.68219183
C       5.38822490      1.35368180      0.69371521
C       6.57360081      0.76272744      0.23605123
C       7.84319598      1.50672582      0.22901372
C       8.99566915      0.98059755      0.82609502
C      10.16678315      1.72322969      0.80088145
N      10.27228313      2.93897178      0.22479581
C       9.15932750      3.42863764     -0.35869485
C       7.94283304      2.76330185     -0.38140234
C       6.50209003     -0.56063232     -0.21810878
C       5.28488988     -1.25857068     -0.22422097
C       4.10553069     -0.67426290      0.21662407
N       2.95738213     -1.36697382      0.17543300
C      -1.09888627     -0.28001899      1.64611471
C      -2.45680874     -0.10871208      1.94000835
H      -6.49737249      1.18203394     -2.84473933
H      -7.97045669      1.44057681     -1.89438370
H      -6.37775707      1.34209615     -1.10896823
H      -7.88463204     -2.14776574     -2.92287965
H      -7.32915822     -0.77527256     -3.87037888
H      -8.88005962     -0.67488903     -3.00793544
H      -8.03121803     -1.97682187     -0.53703073
H      -8.85155525     -0.41632162     -0.50528207
H      -7.55697298     -1.03197752      1.61820155
H      -7.09720736      0.52592469      0.93781209
H      -5.34186173     -1.06641677     -0.27599281
H      -3.70896055     -2.74220900      0.18147193
H      -1.32766198     -3.03803012     -0.31897244
H       0.91716719     -2.41754370      0.05595626
H       2.89382402      2.17196233      1.50512295
H       5.40318653      2.37606058      1.06534193
H       8.98475268      0.01187489      1.31699322
H      11.07808172      1.34816330      1.25993091
H       9.27187467      4.40439446     -0.82495113
H       7.09340933      3.21690339     -0.88110871
H       7.39163417     -1.06232092     -0.59249083
H       5.26115378     -2.28514960     -0.58923499
H      -0.39370080      0.42707495      2.07443957
H      -2.76986158      0.71732826      2.57821027
