50
CC(=O)N[C@H](C)c1ccc(Nc2ncc3cc(-c4ccncc4)c(Cl)cc3n2)cc1
C      -7.47587008      2.90107039     -0.04409222
C      -7.33654596      1.45691666      0.35729622
O      -8.31088703      0.76025792      0.62200486
N      -6.04202218      1.00095899      0.38471808
C      -5.71102847     -0.36675373      0.74904839
C      -5.79737187     -0.57732522      2.26384455
C      -4.34805916     -0.72170431      0.18233669
C      -3.15891085     -0.23861657      0.74325222
C      -1.91509129     -0.56017976      0.18253782
C      -1.81547286     -1.36916220     -0.95145632
N      -0.60699660     -1.71060658     -1.56628797
C       0.72810671     -1.41276572     -1.31335697
N       1.60429498     -2.03700295     -2.11623918
C       2.91062218     -1.78257913     -1.91487488
C       3.38603588     -0.92311234     -0.94073994
C       4.75365199     -0.65547217     -0.72711358
C       5.16101878      0.23315723      0.27932425
C       6.59351733      0.48895249      0.47137959
C       7.19859845      1.63001989     -0.06545180
C       8.55663476      1.81998067      0.13309118
N       9.34226574      0.96127328      0.81612514
C       8.74208960     -0.13160797      1.33137080
C       7.39245859     -0.40967015      1.18615530
C       4.16027080      0.83730216      1.05813703
Cl      4.54437388      1.94237884      2.33333554
C       2.80618672      0.55766917      0.83257397
C       2.40119930     -0.31962922     -0.16190507
N       1.09712655     -0.56018180     -0.34506327
C      -3.01127893     -1.83277316     -1.52029956
C      -4.25747452     -1.51549399     -0.96685056
H      -6.50550109      3.40110836     -0.10809883
H      -8.08235409      3.42181831      0.70210825
H      -7.96462547      2.95404938     -1.02077490
H      -5.28283651      1.62613906      0.14917034
H      -6.46598633     -1.02085771      0.29291296
H      -6.82082196     -0.42065273      2.62167762
H      -5.15856472      0.12191526      2.81376978
H      -5.50034834     -1.59579187      2.53581531
H      -3.17854175      0.39898887      1.62411021
H      -1.02627446     -0.16206395      0.66257285
H      -0.65288326     -2.37690645     -2.32329483
H       3.58355386     -2.30991601     -2.58584258
H       5.50326778     -1.14003211     -1.35186703
H       6.62668322      2.36288259     -0.62563174
H       9.06319153      2.69498980     -0.26471361
H       9.39539105     -0.80156631      1.88352286
H       6.97549347     -1.30784597      1.62986381
H       2.04496247      1.03353763      1.44699437
H      -2.98694618     -2.45165822     -2.41464098
H      -5.15830166     -1.89343869     -1.44689901
