25
O=S1OC[C@@H]2[C@H](CO1)C1(Cl)C(Cl)=C(Cl)[C@@]2(Cl)C1(Cl)Cl
O       3.25026483     -0.12507406      1.51360027
S       3.40148940     -0.05921933      0.02448666
O       2.50752839     -1.22939039     -0.62623181
C       1.25614313     -1.51232509     -0.00711892
C       0.14380345     -0.76018906     -0.74152198
C       0.17078362      0.81964434     -0.66891012
C       1.30695850      1.46292216      0.12962331
O       2.54894094      1.19546969     -0.51478956
C      -1.27233831      1.15140717     -0.15369541
Cl     -1.75498495      2.81859742     -0.41732440
C      -1.37952675      0.63510659      1.26755214
Cl     -1.39634777      1.61491526      2.64762825
C      -1.40234905     -0.70129332      1.20612754
Cl     -1.45470113     -1.80238847      2.49056067
C      -1.31059024     -1.08843437     -0.25664467
Cl     -1.84935078     -2.70700584     -0.67129529
C      -2.14599990      0.07703812     -0.87872000
Cl     -2.10727716      0.15894991     -2.67524296
Cl     -3.89232793      0.08552661     -0.41454392
H       1.26319778     -1.31985916      1.07016945
H       1.09776511     -2.59064313     -0.11920367
H       0.24495652     -1.02618478     -1.80383967
H       0.28260223      1.17833465     -1.70251652
H       1.30576355      1.17235142      1.18471081
H       1.18559652      2.55174364      0.11713979
