26
CCOC1=C(O)C(=O)O[C@@H]1[C@@H](O)CO
C       3.56904494      0.91827448     -1.23021419
C       2.75121687      0.21458542     -0.16229304
O       1.40110270      0.66861684     -0.27240304
C       0.49626755      0.11364679      0.58770527
C       0.63972262     -0.75881660      1.58745190
O       1.76529669     -1.37534731      2.05394830
C      -0.69063961     -0.94069132      2.18789432
O      -0.91153486     -1.67247258      3.13820162
O      -1.58587303     -0.12925405      1.56566288
C      -0.93348073      0.51083734      0.45521312
C      -1.57744936      0.06277367     -0.86835641
O      -1.50596365     -1.36740737     -1.02199625
C      -3.05525580      0.46268004     -0.93273147
O      -3.57908040      0.04144160     -2.19608549
H       3.17261904      0.69778088     -2.22692208
H       3.51927098      2.00450987     -1.10063673
H       4.61602598      0.60510675     -1.18908755
H       3.15574923      0.46832413      0.82391752
H       2.80270709     -0.86766954     -0.32704344
H       1.45992664     -1.95388388      2.78281966
H      -1.03781945      1.59450045      0.58455466
H      -1.04150767      0.49571601     -1.72147693
H      -2.08650402     -1.56465177     -1.78490971
H      -3.17901091      1.54616641     -0.84542908
H      -3.63786918     -0.04069188     -0.15462599
H      -4.52696165      0.26592560     -2.19620927
