57
CCC(C)(C)N1Cc2nc3c(-c4cc(OC)ccc4OC)cccc3c(N)c2C1=O
C       4.95525700     -1.09339184      1.35550857
C       4.64739904      0.39262247      1.48647962
C       4.15483051      1.11759352      0.20260824
C       3.94954425      2.60980390      0.56974899
C       5.23988846      1.09822599     -0.89505596
N       2.87627850      0.53947322     -0.28572779
C       1.58341122      0.92278434      0.28120823
C       0.63264838     -0.05886376     -0.33457632
N      -0.69351138     -0.08856450     -0.13504504
C      -1.40050801     -1.04245381     -0.79037329
C      -2.80012509     -1.09564185     -0.63864424
C      -3.51833853     -0.13674775      0.22983066
C      -3.59787677      1.22241542     -0.13669297
C      -4.29232771      2.14563675      0.65058054
O      -4.42861691      3.48211994      0.39084784
C      -3.76955278      3.98131677     -0.76607514
C      -4.92981034      1.71145712      1.81423316
C      -4.86588415      0.37361775      2.19932429
C      -4.14759228     -0.53587435      1.42207438
O      -4.12357494     -1.85024131      1.81952783
C      -3.06039752     -2.05552074      2.75119574
C      -3.55264782     -2.06746208     -1.32612328
C      -2.93915201     -2.98126133     -2.16949128
C      -1.55869951     -2.94461496     -2.32836588
C      -0.76216192     -2.00070167     -1.64362556
C       0.65290025     -1.97041724     -1.77810454
N       1.34686116     -2.81666266     -2.66769057
C       1.31569510     -0.94398227     -1.12976060
C       2.74133551     -0.61177053     -1.06143436
O       3.60334012     -1.29211251     -1.58752648
H       5.34755535     -1.47267674      2.30529762
H       4.05641907     -1.67144706      1.12560197
H       5.70925163     -1.28937457      0.58882539
H       5.55542053      0.89075277      1.85161847
H       3.89707518      0.50749884      2.27955435
H       3.55533046      3.17446526     -0.28328857
H       3.24635236      2.73181754      1.40124425
H       4.89246662      3.07882232      0.87424887
H       5.54065950      0.08770753     -1.18135124
H       4.88476323      1.60031974     -1.80265705
H       6.14771303      1.61395783     -0.56083123
H       1.33725349      1.94648219     -0.01239064
H       1.60627038      0.80730874      1.36835359
H      -3.10150500      1.53082677     -1.05195403
H      -2.68622736      3.83730812     -0.69742283
H      -4.17319888      3.52705765     -1.67672150
H      -3.95897147      5.05774630     -0.81986299
H      -5.48265353      2.42216496      2.42333936
H      -5.37452429      0.04214857      3.09947329
H      -2.09218541     -1.75999083      2.33237964
H      -3.01773109     -3.12495815      2.97836773
H      -3.24952023     -1.51841308      3.68697661
H      -4.63387798     -2.10312520     -1.19989275
H      -3.53397530     -3.71866520     -2.70223927
H      -1.10727717     -3.66334794     -3.00771050
H       2.36329298     -2.77149826     -2.53430962
H       1.01321208     -3.77367010     -2.68630908
