18
Cc1ccc(NO)cc1
C      -2.90646353     -0.12461567      0.35181248
C      -1.42104447     -0.11606054      0.14629128
C      -0.59032513      0.61595511      1.00039252
C       0.79219164      0.64988350      0.78915437
C       1.37320909     -0.05585855     -0.26885056
N       2.75744303      0.01661766     -0.54841550
O       3.62604672      0.52492609      0.41751700
C       0.53266891     -0.75065479     -1.14660654
C      -0.85015988     -0.78605765     -0.93997775
H      -3.15407875     -0.03695722      1.41493521
H      -3.34493382     -1.06170411     -0.00712916
H      -3.36393677      0.70998357     -0.18826695
H      -1.01151673      1.16841775      1.83716970
H       1.41224488      1.22548242      1.47023240
H       3.09544727     -0.86338226     -0.94205288
H       3.58212600      1.48718749      0.25940296
H       0.94844758     -1.26731790     -2.00767601
H      -1.47736603     -1.33584489     -1.63793259
