36
CCC1COC(Cn2cncn2)(c2ccc(Cl)cc2Cl)O1
C       3.83066873     -1.16094060     -0.00256188
C       3.23839322     -0.08362476      0.89557090
C       2.24231203      0.80696187      0.14491377
C       1.62723016      1.86016107      1.03210298
O       0.55133228      1.16489371      1.65450302
C       0.03295902      0.28252589      0.63558516
C      -0.36283475     -1.05155306      1.29373806
N      -0.97533848     -1.98550501      0.37741045
C      -0.36570610     -2.75929653     -0.56058609
N      -1.26471274     -3.49020909     -1.17830752
C      -2.42851421     -3.13090442     -0.56034020
N      -2.30146814     -2.21771623      0.40583550
C      -1.13007188      0.96851138     -0.09319227
C      -1.14783619      0.99172445     -1.50634148
C      -2.19521501      1.58564150     -2.21519588
C      -3.25108085      2.16640094     -1.52550685
Cl     -4.54063658      2.90047543     -2.39510567
C      -3.26986973      2.15538834     -0.13588662
C      -2.22124628      1.55910725      0.57708961
Cl     -2.36046185      1.59763445      2.30091962
O       1.12386474      0.02301401     -0.28894313
H       4.34233172     -0.71638083     -0.86206775
H       4.55990362     -1.75733936      0.55481654
H       3.05693485     -1.83868446     -0.37519158
H       4.05171254      0.53211576      1.29678832
H       2.75148995     -0.57644007      1.74480249
H       2.73124473      1.25678536     -0.72561974
H       1.21121296      2.68726066      0.44584975
H       2.30872574      2.26926480      1.78275510
H      -1.04512488     -0.91069949      2.13833118
H       0.52410061     -1.55198236      1.70155386
H       0.69817911     -2.74743785     -0.75127057
H      -3.39315728     -3.54765434     -0.82028463
H      -0.34441164      0.53041944     -2.07981550
H      -2.18067492      1.58202981     -3.30233873
H      -4.10423451      2.60605235      0.39598978
