47
CNC(=O)Oc1c(C(C)(C)C)cc(C)cc1C(C)(C)C
C       1.21931875      3.28828336     -2.93986231
N       0.76919526      1.96416076     -2.61183534
C       0.66154249      1.53771370     -1.31539069
O       1.02966790      2.18429616     -0.34430992
O       0.06464638      0.28408584     -1.30016645
C      -0.09881551     -0.24700706     -0.01435831
C       0.95110724     -1.03602498      0.52811297
C       2.19081278     -1.52981906     -0.26098853
C       3.34558939     -0.52807084     -0.07113517
C       2.67919114     -2.91618274      0.24794757
C       1.94364886     -1.73197954     -1.77531500
C       0.83850622     -1.36447074      1.89289056
C      -0.27143561     -0.99815333      2.65810858
C      -0.35327610     -1.38091533      4.10732919
C      -1.33508760     -0.33406281      2.04215327
C      -1.30475683      0.03357131      0.68306683
C      -2.55041153      0.71825594      0.06447121
C      -3.86909810      0.19367314      0.70112608
C      -2.47727030      2.23512974      0.32290922
C      -2.72269659      0.47405349     -1.45402368
H       2.03944792      3.58738171     -2.28169717
H       1.55361311      3.29484120     -3.97974074
H       0.38314845      3.98147218     -2.81610659
H       0.30858522      1.39341948     -3.30638175
H       3.58922176     -0.39189147      0.98900255
H       3.10129611      0.45707012     -0.47863041
H       4.25457301     -0.87326702     -0.57747124
H       3.48226144     -3.31336062     -0.38501730
H       3.09605793     -2.87032512      1.25945560
H       1.86347295     -3.64868600      0.24623192
H       1.88569140     -0.78863417     -2.32356638
H       1.02432135     -2.29989706     -1.95785844
H       2.76848302     -2.28322523     -2.24366179
H       1.63394420     -1.90505000      2.39867125
H       0.64264342     -1.40670730      4.56202803
H      -0.94686959     -0.65359631      4.67117831
H      -0.81422595     -2.36832642      4.20773359
H      -2.19396112     -0.09073269      2.66170505
H      -3.97992942      0.49507525      1.74799507
H      -3.92543675     -0.90008248      0.65136044
H      -4.74921017      0.59445243      0.18334288
H      -2.40270857      2.45708853      1.39387161
H      -1.61103307      2.69033029     -0.16555062
H      -3.37020728      2.74384280     -0.05875979
H      -2.02007275      1.05369121     -2.05744872
H      -2.60641470     -0.58662259     -1.70393065
H      -3.71707019      0.78520226     -1.79748478
