29
O=C(Nc1ccc(Cl)cc1)c1cccc([N+](=O)[O-])c1O
O       0.59119943      2.20757322      0.21903798
C       0.10964375      1.08230031      0.12714013
N       0.82422579     -0.07571987     -0.10008058
C       2.21397859     -0.22511267     -0.27162430
C       3.12619922      0.83188260     -0.23571406
C       4.49438819      0.59614775     -0.41599528
C       4.95440400     -0.69926234     -0.63297473
Cl      6.63543133     -0.98762469     -0.85431353
C       4.05792495     -1.76285106     -0.67145828
C       2.69191172     -1.52463271     -0.49109649
C      -1.38457111      0.93367905      0.27181738
C      -2.10717971      2.12166145      0.50377801
C      -3.49391817      2.11433799      0.65484235
C      -4.19054866      0.91365953      0.57681750
C      -3.49285481     -0.28313167      0.34645511
N      -4.26887543     -1.52744380      0.27152282
O      -5.49661244     -1.46338886      0.41434778
O      -3.63912098     -2.57806710      0.06739238
C      -2.08870300     -0.28565289      0.19221625
O      -1.37001187     -1.43851981     -0.03479983
H       0.27163050     -0.92822209     -0.14911972
H       2.80659534      1.85572701     -0.06904175
H       5.18896815      1.43137272     -0.38474229
H       4.41182267     -2.77605178     -0.84052035
H       2.00768938     -2.36881222     -0.52463592
H      -1.58268562      3.07586962      0.56897979
H      -4.02490758      3.04758588      0.83304490
H      -5.27291292      0.92831718      0.69734465
H      -1.97311072     -2.21562075     -0.06861991
