26
FC(F)(F)C(F)(F)C(F)(F)C(F)(F)C(F)(F)C(F)(F)CCI
F       4.40491632     -1.22684961     -0.15399776
C       3.48111279     -0.27140336      0.11121681
F       3.09772797     -0.45479757      1.39350688
F       4.11199880      0.92129982      0.04612043
C       2.30836972     -0.35548148     -0.84866727
F       1.67898620     -1.55705007     -0.73639627
F       2.77813168     -0.31978921     -2.13650777
C       1.31355382      0.77542756     -0.67418069
F       1.94677433      1.95949271     -0.95149088
F       0.34938901      0.67904262     -1.64210974
C       0.61748809      0.91799663      0.66990298
F      -0.21840759      2.00287074      0.60818187
F       1.54942974      1.26581138      1.60639047
C      -0.17917599     -0.27486390      1.17567595
F       0.67863872     -1.31156316      1.39900387
F      -0.68877020      0.03888915      2.40835718
C      -1.33106987     -0.74598833      0.28609248
F      -0.84967830     -1.18651336     -0.90434312
F      -1.91249681     -1.83627250      0.86819721
C      -2.42399061      0.28423642      0.02985000
C      -3.57573938     -0.33412842     -0.76357347
I      -5.09043771      1.13258367     -1.14228171
H      -2.01847873      1.12758739     -0.53876219
H      -2.79955546      0.66808482      0.98577040
H      -4.01754751     -1.16918268     -0.20903257
H      -3.21116903     -0.72943928     -1.71810101
