22
Clc1ccccc1-c1cc(Cl)c(Cl)c(Cl)c1
Cl     -0.74061956      0.31511053      2.75218890
C      -1.52230986      0.04181668      1.23209821
C      -2.91597768     -0.08112873      1.23485474
C      -3.60135002     -0.31415327      0.04356299
C      -2.89586542     -0.42587259     -1.15125262
C      -1.50407093     -0.30350557     -1.15630111
C      -0.79116318     -0.06582134      0.03337417
C       0.67169517      0.05808310     -0.02247896
C       1.28882397      1.31537186      0.02437583
C       2.68327181      1.43445435     -0.02874323
Cl      3.33833314      3.03530985      0.03641075
C       3.49103691      0.29378459     -0.13346658
Cl      5.21890259      0.43795067     -0.20340276
C       2.87742796     -0.96547611     -0.18408176
Cl      3.78098241     -2.43593459     -0.31712564
C       1.48248359     -1.07950334     -0.13037101
H      -3.47293080      0.00196296      2.16504725
H      -4.68456718     -0.40949736      0.04844274
H      -3.42827041     -0.60774950     -2.08219111
H      -0.97341257     -0.39102950     -2.10332389
H       0.67558706      2.21206982      0.10760749
H       1.02199302     -2.06624253     -0.16522440
