22
Clc1ccc(-c2c(Cl)cccc2Cl)cc1
Cl     -5.21903219      0.05159806      0.16853501
C      -3.49956781      0.03459693      0.11301089
C      -2.82745752     -1.15575351     -0.15333928
C      -1.43069940     -1.16913936     -0.19835630
C      -0.69488219      0.00686610      0.02244130
C       0.77713866     -0.00768675     -0.02509583
C       1.54683668     -0.25858004      1.13000424
Cl      0.81010563     -0.56371060      2.66900798
C       2.94668805     -0.27211715      1.08336119
C       3.61090076     -0.03569022     -0.11660755
C       2.87545506      0.21456590     -1.27137698
C       1.47551677      0.22869651     -1.22760575
Cl      0.64720209      0.54928980     -2.71607007
C      -1.39155071      1.19703475      0.28949808
C      -2.78829480      1.21126922      0.33468981
H      -3.38108612     -2.07452100     -0.32648178
H      -0.91701058     -2.10551071     -0.40742302
H       3.52364454     -0.46751419      1.98476868
H       4.69768578     -0.04642886     -0.15170346
H       3.39680202      0.39910903     -2.20825279
H      -0.84705000      2.12294349      0.46439381
H      -3.31134473      2.14068262      0.54260181
