15
CC(O)C(C)Cl
C      -1.93325666     -0.13428010     -0.08650621
C      -0.50034199     -0.34265345      0.39197724
O      -0.12610138     -1.69893705      0.13973204
C       0.50836706      0.64272590     -0.23291757
C       1.91008167      0.46033029      0.33974222
Cl      0.59126145      0.43792503     -2.01562232
H      -2.26079471      0.89691275      0.07591038
H      -2.61039943     -0.80201096      0.45781885
H      -2.04939050     -0.38176380     -1.14656248
H      -0.48627226     -0.21187382      1.48039498
H      -0.03726389     -1.79527038     -0.82721604
H       0.17754571      1.67104178     -0.05160407
H       2.60294194      1.19752967     -0.08062209
H       1.90231885      0.59724496      1.42631504
H       2.31130414     -0.53692081      0.12916001
