40
CCCCCCNCCCCCC
C       6.37269545      1.38530324     -0.65220251
C       5.07386667      0.86853779     -0.05211554
C       4.86154547     -0.61121949     -0.37388360
C       3.62550603     -1.21048695      0.30305482
C       2.30701388     -0.62076765     -0.20463909
C       1.10643805     -1.33608132      0.42132495
N      -0.13542372     -0.75436231     -0.09010071
C      -1.30486632     -1.40423451      0.50157757
C      -2.61655391     -0.84985130     -0.06839036
C      -2.88587414      0.60754720      0.32141585
C      -4.19578070      1.15726559     -0.25334390
C      -5.44437346      0.49845333      0.33446102
C      -6.71396665      1.16164565     -0.17804220
H       6.50449077      2.44549695     -0.41432965
H       7.23384929      0.83881188     -0.25458854
H       6.37076028      1.27898545     -1.74172143
H       4.24516962      1.46697232     -0.44503866
H       5.09689550      1.01464017      1.03391182
H       4.78892398     -0.74789687     -1.45974923
H       5.74038090     -1.17875246     -0.04311264
H       3.62746042     -2.29225038      0.11986859
H       3.69855661     -1.07436910      1.38894319
H       2.25889680      0.44744828      0.03696680
H       2.26296274     -0.71017474     -1.29735003
H       1.15071925     -1.23793651      1.51269329
H       1.14922015     -2.40309572      0.17280308
H      -0.15046111      0.24285457      0.11887919
H      -1.27142957     -2.47923871      0.28686991
H      -1.30045433     -1.28281781      1.59153361
H      -3.42991528     -1.48399682      0.30209746
H      -2.61505439     -0.94678315     -1.16135491
H      -2.07221039      1.24358160     -0.04524995
H      -2.89516705      0.70324199      1.41387355
H      -4.23160685      2.23452887     -0.04779383
H      -4.19498387      1.04484756     -1.34440087
H      -5.42128936      0.56448898      1.42826952
H      -5.47557726     -0.56403311      0.07161585
H      -6.74342775      2.22031048      0.09890217
H      -6.78152653      1.08904127     -1.26823665
H      -7.59540923      0.67434575      0.25040469
