8
FC(F)CCl
F      -1.51306965      0.69278575      0.69908273
C      -0.74930189     -0.02097742     -0.17042805
F      -1.14554477     -1.31330975     -0.05098729
C       0.70701351      0.12047250      0.21804216
Cl      1.78344155     -0.59737498     -1.00631097
H      -0.96187303      0.32796902     -1.18491420
H       0.97717337      1.17466263      0.32697601
H       0.90216090     -0.38422775      1.16853961
