55
CC12CCC(=O)C=C1CCC1C2C(O)CC2(C)C(C(=O)CO)CCC12
C      -3.09042993      1.93696551      0.20918389
C      -2.56636086      0.59218175     -0.36804109
C      -3.12558306      0.44865338     -1.81581853
C      -4.62187238      0.17045027     -1.86911187
C      -4.94530925     -1.05590233     -1.05422507
O      -5.87858410     -1.80335533     -1.33799500
C      -4.16032869     -1.30113953      0.17874060
C      -3.11344848     -0.52742585      0.51980039
C      -2.45811213     -0.71259460      1.86602497
C      -0.93890979     -0.74692936      1.77947104
C      -0.38056873      0.48629458      1.05034156
C      -0.97705359      0.64047642     -0.38056780
C      -0.27633256     -0.30552982     -1.38831316
O      -0.66882742     -1.65365714     -1.19367055
C       1.25296676     -0.17138254     -1.36256870
C       1.91412638     -0.32020504      0.03254673
C       2.02905324     -1.80952386      0.40197188
C       3.32168580      0.34834870      0.01063292
C       4.28129355     -0.13118761      1.10256903
O       4.11372474      0.11770699      2.29910615
C       5.48999388     -0.94243844      0.64754817
O       6.25661189     -1.40840411      1.74819857
C       3.05616568      1.84444157      0.19583071
C       1.70190827      1.95643250      0.89271870
C       1.16484814      0.52167582      1.08825629
H      -2.79493677      2.77741993     -0.42953297
H      -2.70526408      2.14154768      1.21290080
H      -4.18315898      1.95232679      0.28754015
H      -2.89497151      1.34506388     -2.40437946
H      -2.65077603     -0.39440165     -2.32928376
H      -4.91420506     -0.01770643     -2.90827604
H      -5.21413619      1.01178525     -1.49794935
H      -4.53290344     -2.09800993      0.81281607
H      -2.80277878     -1.63451918      2.35096136
H      -2.76500943      0.11064827      2.52336607
H      -0.63668578     -1.67712090      1.29628897
H      -0.53377787     -0.78574522      2.79841283
H      -0.71093713      1.35265119      1.64008871
H      -0.71251860      1.65102401     -0.72482475
H      -0.58310119     -0.03111720     -2.40408698
H      -0.28171929     -2.18854357     -1.90779663
H       1.69492526     -0.90870383     -2.04603434
H       1.49479235      0.81206847     -1.78574932
H       2.37004214     -1.94837186      1.43343004
H       2.74199007     -2.31662865     -0.25812995
H       1.08726474     -2.34939211      0.31049782
H       3.82203409      0.18146831     -0.95162917
H       5.15282548     -1.80872365      0.07287218
H       6.12788240     -0.30863190      0.02515510
H       5.87880986     -0.97748882      2.54527084
H       3.83964525      2.35410246      0.76739865
H       3.00401823      2.34144456     -0.78034329
H       1.80392223      2.45581642      1.86322661
H       1.03309429      2.57954444      0.29021904
H       1.48497637      0.20424129      2.09054408
