30
C=CCCCCCCCC
C       4.19721512      2.15104244      0.38551557
C       3.23388712      1.33652810      0.83445321
C       3.33803661     -0.16234201      0.84672333
C       2.36304623     -0.84851287     -0.11587461
C       0.89305131     -0.68602899      0.28648662
C      -0.02634727     -1.46458995     -0.65847588
C      -1.49917713     -1.43142443     -0.23996499
C      -2.12542941     -0.03776008     -0.32533806
C      -3.62151663     -0.08339257     -0.01124612
C      -4.24979071      1.29890551     -0.09026698
H       4.06891740      3.22888047      0.41015111
H       5.12965678      1.76660731     -0.01596169
H       2.32215180      1.77489381      1.23460161
H       3.16484317     -0.51881818      1.86917714
H       4.35778350     -0.46883992      0.58168824
H       2.60800317     -1.91775510     -0.14360471
H       2.51226157     -0.46414598     -1.13278294
H       0.62332597      0.37468281      0.26987278
H       0.75239701     -1.04434808      1.31324356
H       0.29544540     -2.51306808     -0.68791865
H       0.07519229     -1.07470765     -1.67861633
H      -1.60047568     -1.82143533      0.78014832
H      -2.05492086     -2.11385773     -0.89511065
H      -1.97400256      0.37289217     -1.33088067
H      -1.63275271      0.64000910      0.38063931
H      -4.13060909     -0.74992482     -0.71711642
H      -3.77856757     -0.49311700      0.99334045
H      -5.31894412      1.24283696      0.13704947
H      -3.78531284      1.98263775      0.62744251
H      -4.13736787      1.72415236     -1.09269129
