34
CCOP(=O)(Oc1ccc(Cl)cc1Cl)Oc1ccc(Cl)cc1Cl
C       0.91214346      3.70804005     -1.76009763
C       0.04127299      2.55412170     -1.30806008
O       0.49113141      1.37200766     -1.94816354
P      -0.07110986     -0.04997544     -1.42620451
O       0.36734029     -1.21906881     -2.25819702
O       0.36900502     -0.10530544      0.12000463
C       1.64854604     -0.23630092      0.58307503
C       2.75865344     -0.33194906     -0.25739423
C       4.03932717     -0.45862580      0.28939847
C       4.20868217     -0.48938941      1.67265763
Cl      5.78829704     -0.64386377      2.33534459
C       3.10940420     -0.39556904      2.52059570
C       1.83188139     -0.26955211      1.97327074
Cl      0.48586868     -0.15386100      3.05185181
O      -1.67154774      0.17508415     -1.37111631
C      -2.45570000     -0.72243862     -0.70112559
C      -2.62743026     -2.00835103     -1.21151071
C      -3.43304043     -2.91832938     -0.52510971
C      -4.06421456     -2.53367082      0.65904744
Cl     -5.05521125     -3.66127598      1.49958488
C      -3.90220543     -1.24524679      1.16591839
C      -3.09806805     -0.33670484      0.47940599
Cl     -2.90058284      1.25376005      1.11882861
H       0.86752705      3.82241315     -2.84820582
H       1.96019061      3.52329760     -1.50183790
H       0.59321274      4.64408097     -1.29323895
H       0.10359615      2.44554074     -0.22125391
H      -1.00046866      2.73951910     -1.58671851
H       2.66413327     -0.31598247     -1.34015058
H       4.89986956     -0.53535897     -0.37170850
H       3.24510560     -0.42086671      3.59825326
H      -2.14259148     -2.30943983     -2.13779489
H      -3.56559671     -3.92356733     -0.91860694
H      -4.39742102     -0.95317158      2.08779701
