22
CCC1(C)C(=O)NC(=O)NC1=O
C      -2.01099555      0.97007778     -1.06213544
C      -1.72944399     -0.09517862     -0.00483218
C      -0.23031108     -0.31795448      0.29778972
C      -0.09983430     -1.41360138      1.37624614
C       0.51910114     -0.81913498     -0.92528055
O      -0.00832862     -1.43159075     -1.85023036
N       1.87043812     -0.60701484     -0.92337005
C       2.47948881      0.41583325     -0.26617934
O       3.58111109      0.83127190     -0.60995278
N       1.77667886      1.01253754      0.73335156
C       0.41766724      0.93296724      0.86701821
O      -0.19608085      1.81151034      1.46726147
H      -1.63434847      1.95131951     -0.76001944
H      -3.09135321      1.06349722     -1.21460580
H      -1.56269054      0.71363036     -2.02610063
H      -2.25607772      0.19136568      0.91478396
H      -2.18503310     -1.03584744     -0.34057766
H      -0.60871502     -1.11996591      2.30178455
H       0.94721485     -1.61485975      1.63228043
H      -0.53694224     -2.35901754      1.03429931
H       2.35989693     -0.93336961     -1.74618958
H       2.19855765      1.85352448      1.10465846
