31
COP(=S)(NC(C)C)Oc1ccc(Cl)cc1Cl
C      -0.43138473     -3.50361411     -0.28946329
O      -1.03440667     -2.26049544      0.01745495
P      -0.33698988     -0.89617645     -0.51820713
S      -0.12897779     -0.82219423     -2.45006033
N      -1.22825019      0.25658468      0.25378956
C      -2.51166062      0.71142224     -0.27357104
C      -2.93186694      1.95905882      0.50437405
C      -3.58825722     -0.36568112     -0.16162160
O       1.04551563     -0.95905539      0.31667383
C       2.03317610     -0.01271579      0.35763329
C       1.88026296      1.28134824     -0.14199796
C       2.93649844      2.19412806     -0.05689848
C       4.14197787      1.81526101      0.53066869
Cl      5.43395196      2.94596925      0.63304406
C       4.30577258      0.53032209      1.03792591
C       3.25064059     -0.37940780      0.95138766
Cl      3.48741980     -1.96779714      1.59248848
H      -0.83664952     -4.26099945      0.38648025
H       0.65272389     -3.46192263     -0.15627463
H      -0.67065845     -3.79017818     -1.31652283
H      -1.34047336      0.00456537      1.23089491
H      -2.39964275      0.99984208     -1.32404445
H      -3.87336304      2.35946498      0.11282176
H      -2.17613934      2.74804725      0.41827258
H      -3.07626369      1.74268186      1.56908431
H      -3.70630818     -0.71153746      0.87137087
H      -4.55690593      0.02083647     -0.49704278
H      -3.35091854     -1.23242109     -0.78635103
H       0.95489626      1.61675139     -0.60102775
H       2.80981626      3.19958524     -0.45229683
H       5.24646453      0.23832725      1.49631755
