41
Cc1nccn1CC1CCc2c(c3ccccc3n2C)C1=O
C       4.31719171      0.55866346     -1.87724535
C       4.49500399     -0.26479589     -0.65436939
N       5.45167046     -1.15235361     -0.46453376
C       5.26943041     -1.64098341      0.80064093
C       4.17766709     -1.05613892      1.39268658
N       3.67504066     -0.20077688      0.44928017
C       2.50559915      0.64135171      0.62429060
C       1.23414996      0.07161644     -0.01914327
C       0.79102865     -1.25757482      0.63822074
C      -0.50518508     -1.81169790      0.02471247
C      -1.51921303     -0.72324852     -0.03550423
C      -1.24473970      0.63143156     -0.00891099
C      -2.48643093      1.32295496     -0.05068862
C      -2.85110380      2.68540817     -0.03443861
C      -4.20189903      3.04279687     -0.08268413
C      -5.18874380      2.06493789     -0.14631208
C      -4.85581666      0.70718730     -0.16615354
C      -3.49604946      0.35503500     -0.12053374
N      -2.87785257     -0.88307256     -0.13292472
C      -3.57771069     -2.14666644     -0.22719928
C       0.12291339      1.13019705      0.06634071
O       0.37877883      2.33010877      0.13837325
H       4.33256682      1.62558676     -1.63570046
H       5.12749267      0.36491187     -2.58737536
H       3.37270048      0.32098700     -2.37432649
H       5.93620886     -2.38394494      1.21821135
H       3.73246855     -1.17991447      2.36969923
H       2.76253990      1.62283995      0.20884594
H       2.36156163      0.79050255      1.70203821
H       1.40868632     -0.10933029     -1.08752888
H       0.63641536     -1.09525715      1.71374128
H       1.57127078     -2.01962660      0.53665109
H      -0.30898405     -2.18279402     -0.98787842
H      -0.85922388     -2.65219608      0.63113422
H      -2.08571757      3.45586194      0.01803296
H      -4.47888996      4.09390968     -0.06863349
H      -6.23499125      2.35993534     -0.18150108
H      -5.63691373     -0.04448096     -0.21506881
H      -4.42715790     -2.03858465     -0.90610177
H      -2.90724699     -2.91107352     -0.62629513
H      -3.91651558     -2.42171264      0.77452260
