30
CSc1nc2cc(Cl)c(Oc3cccc(Cl)c3Cl)cc2[nH]1
C       5.82561362     -1.39894798      1.33953144
S       4.46387231     -0.98827695      2.45496387
C       3.27902254     -0.46302164      1.32049868
N       3.38171792     -0.41352212      0.01549897
C       2.17194386      0.07579286     -0.41374987
C       1.73087603      0.34509113     -1.71666487
C       0.43520379      0.84574174     -1.89101746
Cl     -0.09944675      1.17288695     -3.50195710
C      -0.41075735      1.05749639     -0.79241893
O      -1.66939067      1.58575083     -1.00899003
C      -2.72774322      0.82700524     -0.55052003
C      -2.92678556     -0.46843978     -1.04520753
C      -4.01845626     -1.21848569     -0.61285693
C      -4.91824625     -0.67162177      0.30196156
C      -4.73396559      0.63028040      0.78280723
Cl     -5.89840994      1.23144114      1.91156702
C      -3.63988157      1.39249210      0.35258320
Cl     -3.37969464      3.00539760      0.93177992
C       0.02399217      0.81449276      0.52095260
C       1.32064018      0.31694332      0.66227660
N       2.06349378     -0.03205512      1.76204310
H       5.53020181     -2.18992695      0.64444797
H       6.14164221     -0.51715491      0.77505795
H       6.67579560     -1.75563802      1.92722457
H       2.39106696      0.16808603     -2.55820535
H      -2.24238707     -0.89195481     -1.77655206
H      -4.17321164     -2.22525504     -0.99486714
H      -5.76919517     -1.26347471      0.63271005
H      -0.60727045      1.01463023      1.37942815
H       1.77975934      0.01424680      2.72914093
