37
C1CNCCN1.O=C(O)CC(O)(CC(=O)O)C(=O)O
C      -0.82305142     -1.05775800     -0.49629723
C      -1.38423320      0.11480286      0.33659345
N      -0.59066061      1.34880765      0.19968961
C       0.82305156      1.05775822      0.49629703
C       1.38423329     -0.11480313     -0.33659303
N       0.59066051     -1.34880779     -0.19968930
O      -2.62940055      1.25486698      1.16331160
C      -2.28841984      0.31395119      0.46707465
O      -2.60669186     -0.94756323      0.80720882
C      -1.50284044      0.39479103     -0.80691399
C       0.01252369      0.26804931     -0.62898682
O       0.55447296      0.56333081     -1.93452112
C       0.44663516     -1.15588568     -0.25281016
C       1.89844185     -1.25420853      0.13324491
O       2.36135244     -1.98564395      0.99210143
O       2.71436389     -0.49128904     -0.61965090
C       0.51248001      1.30594891      0.39317403
O       1.07589541      2.35840965      0.13958867
O       0.29604260      0.94361039      1.67243991
H      -1.41583828     -1.95792301     -0.29979703
H      -0.92819019     -0.83836332     -1.56605828
H      -1.42864621     -0.16847944      1.39553422
H      -2.41322270      0.32214237      0.02275158
H      -0.64782450      1.64766921     -0.77484340
H       0.92819021      0.83836491      1.56605841
H       1.41583875      1.95792299      0.29979602
H       2.41322291     -0.32214279     -0.02275176
H       1.42864590      0.16847892     -1.39553380
H       0.64782398     -1.64766963      0.77484351
H      -3.11361927     -0.85346995      1.64231162
H      -1.88104170     -0.35669261     -1.51204678
H      -1.75063892      1.35805027     -1.27392923
H       1.52517090      0.63891939     -1.82143706
H       0.28426246     -1.84756224     -1.08736848
H      -0.12125349     -1.51760373      0.61073365
H       3.61376579     -0.70460816     -0.28411565
H       0.59849889      1.71459918      2.20059087
