33
CCCCC(CC)COC(=O)CS
C      -3.23069133     -0.84051508     -2.56616317
C      -1.88583953     -0.58308073     -1.90367616
C      -2.05194227      0.15151238     -0.57307741
C      -0.71973646      0.53933617      0.07969059
C       0.22224047     -0.63223938      0.44201081
C      -0.42806747     -1.71123297      1.33067877
C      -0.94489250     -1.21911269      2.67565656
C       1.51722620     -0.09723760      1.08301600
O       2.21746795      0.70389410      0.11823500
C       3.35731701      1.28777974      0.58949940
O       3.80730291      1.13131371      1.71765169
C       4.02928854      2.10989658     -0.48428356
S       2.92217233      3.39359060     -1.13431204
H      -3.75191669      0.09915009     -2.77513654
H      -3.09093279     -1.36906480     -3.51434584
H      -3.87180331     -1.45475686     -1.92580789
H      -1.38319934     -1.54366927     -1.74941544
H      -1.25922015      0.00889147     -2.58064665
H      -2.62308494      1.07297140     -0.74440124
H      -2.65134386     -0.45373661      0.11606725
H      -0.19695224      1.22308269     -0.60135692
H      -0.93698329      1.12593213      0.98109902
H       0.51426788     -1.11660657     -0.49931162
H       0.30389981     -2.50853197      1.51213527
H      -1.25393784     -2.18612925      0.78874119
H      -0.14125385     -0.79715721      3.28575590
H      -1.37918039     -2.05476480      3.23443434
H      -1.72500108     -0.46213972      2.55611559
H       1.28907147      0.51420710      1.96382225
H       2.16212955     -0.93363122      1.37763694
H       4.35423822      1.44494207     -1.28983023
H       4.91398966      2.59375560     -0.06012689
H       1.91536731      2.56335090     -1.45035498
