16
Nc1nc(CC(=O)O)cs1
N       1.90362094     -0.70955054      2.15394965
C       1.48513419     -0.34068611      0.93429668
N       0.24635967      0.00775765      0.67815575
C       0.10894626      0.34167639     -0.66698028
C      -1.23428380      0.77371095     -1.15612487
C      -2.34579623     -0.19740293     -0.82396126
O      -3.32908646     -0.34398736     -1.54052478
O      -2.22950278     -0.84388911      0.35908994
C       1.27040621      0.23614832     -1.40680732
S       2.55627681     -0.28825913     -0.40434396
H       2.89641701     -0.64256539      2.34658765
H       1.32027138     -0.42363174      2.93219930
H      -1.20728434      0.88982067     -2.24586108
H      -1.49085079      1.74303891     -0.71554064
H      -1.37516142     -0.63800804      0.81298258
H       1.42453335      0.43582746     -2.45809500
