18
O=[N+]([O-])C12COP(=O)(OC1)OC2
O       2.65048471     -0.86083807      0.59921763
N       2.02674962     -0.16570774     -0.20996176
O       2.53482652      0.45021055     -1.15446822
C       0.54494068     -0.05245692     -0.04573325
C       0.04408328     -0.85876142      1.15549618
O      -1.37291324     -0.73753899      1.29500837
P      -2.11640165      0.18703026      0.20026773
O      -3.59260388      0.32154595      0.33444668
O      -1.25345394      1.54932908      0.29625879
C       0.16238586      1.41167344      0.16132570
O      -1.56992988     -0.45207349     -1.17910392
C      -0.15142016     -0.57284480     -1.30159043
H       0.27192069     -1.92585847      1.05170045
H       0.49525348     -0.51349805      2.09284249
H       0.62718818      1.82425012      1.06408739
H       0.47151657      2.04080700     -0.68093288
H       0.08118265     -1.62870337     -1.48130673
H       0.14619051     -0.01656508     -2.19755421
