37
CN[C@H]1CC[C@@H](c2ccc(Cl)c(Cl)c2)c2ccccc21
C      -3.61681874     -2.03934916     -0.71572925
N      -2.87450383     -0.79118591     -0.65689987
C      -1.94021309     -0.70913799      0.47729420
C      -0.78948874     -1.71866226      0.31124010
C       0.32031149     -1.45933149      1.32316463
C       0.95074870     -0.07066536      1.12911500
C       1.98754638     -0.08398615      0.00505227
C       3.30624438     -0.47062846      0.29455712
C       4.27738130     -0.51115341     -0.70946351
C       3.94666101     -0.17050766     -2.02274277
Cl      5.19700968     -0.24606808     -3.21250787
C       2.63810399      0.21117169     -2.33034800
Cl      2.15056244      0.63881709     -3.93237849
C       1.66746874      0.25179122     -1.32200746
C      -0.10338615      1.01768702      0.99407891
C       0.28355634      2.35748018      1.19579193
C      -0.64003830      3.39484683      1.08778628
C      -1.96512828      3.10978260      0.78382621
C      -2.36321007      1.78828474      0.58153161
C      -1.44355545      0.72380061      0.66310555
H      -4.36788246     -1.97370618     -1.50928586
H      -2.97237609     -2.89271360     -0.94584793
H      -4.14933389     -2.23206380      0.22106438
H      -2.36503890     -0.64317531     -1.52688523
H      -2.47969606     -0.95087330      1.40404403
H      -0.38055427     -1.68197961     -0.70579988
H      -1.16306233     -2.73927730      0.45797025
H      -0.10667794     -1.52503628      2.33320114
H       1.07812866     -2.24916449      1.25427676
H       1.49350101      0.15098558      2.06055686
H       3.58830058     -0.74492264      1.31002722
H       5.29225516     -0.81165181     -0.45936167
H       0.65351605      0.55288326     -1.57988181
H       1.31719672      2.59741003      1.43820786
H      -0.32585776      4.42317236      1.24431928
H      -2.69301138      3.91275913      0.70512498
H      -3.40865892      1.58436789      0.35380301
