30
CC(=O)CC(=O)Nc1ccc(C)cc1C
C      -4.61577858     -0.28137014     -0.92947176
C      -3.60691696     -0.53680278      0.15615423
O      -3.09275804     -1.64588941      0.32017209
C      -3.18684158      0.63019515      1.00522700
C      -1.81004557      1.14121389      0.65855878
O      -1.64386162      2.33268872      0.41605779
N      -0.84196335      0.15348217      0.69304220
C       0.54930471      0.28234408      0.47389834
C       1.16594789      1.52225451      0.27821950
C       2.54545877      1.61691632      0.06786919
C       3.33918327      0.47081710      0.03989429
C       4.82260236      0.57595096     -0.15180082
C       2.73409646     -0.77149000      0.25270772
C       1.34660885     -0.88280889      0.46614577
C       0.76758327     -2.25754037      0.67681449
H      -4.20341773      0.42691908     -1.65245416
H      -4.85066959     -1.21845853     -1.44184137
H      -5.53396384      0.11744980     -0.49077582
H      -3.91266877      1.44246434      0.88941709
H      -3.20709679      0.32924293      2.05829065
H      -1.18575294     -0.79508448      0.82452379
H       0.60137687      2.44886066      0.29073961
H       2.99038831      2.59943301     -0.07348687
H       5.07444886      1.42979425     -0.78966454
H       5.31715106      0.69945188      0.81665198
H       5.21864853     -0.32110476     -0.63961704
H       3.35234572     -1.66791991      0.25154044
H       0.04118779     -2.48851943     -0.10906764
H       0.28404858     -2.32023863      1.65703391
H       1.54135407     -3.03225150      0.64496031
