27
COCCOCCOCCO
C       4.41011742      1.38110906      0.34430820
O       3.87172492      0.90773693     -0.88089526
C       3.56001955     -0.48936009     -0.86921406
C       2.28629843     -0.82183972     -0.08591154
O       1.15078379     -0.26207311     -0.75162199
C      -0.05802349     -0.51249817     -0.03868953
C      -1.22640616      0.10886514     -0.79563849
O      -2.44026284     -0.14164008     -0.08464825
C      -3.56623383      0.43282822     -0.76251349
C      -4.81519205      0.13048652      0.05845822
O      -4.98901845     -1.28150709      0.16883770
H       5.29402651      0.80257297      0.62922979
H       4.70985069      2.42345607      0.20462659
H       3.66246266      1.34695446      1.14064490
H       3.42139742     -0.77995961     -1.91614424
H       4.41413078     -1.05256932     -0.47659360
H       2.33727571     -0.42687166      0.93323331
H       2.16630573     -1.91008578     -0.04030044
H      -0.21561636     -1.59240367      0.06788222
H       0.00183598     -0.08228264      0.96819154
H      -1.28636266     -0.31984250     -1.80317865
H      -1.06846874      1.18899982     -0.90019075
H      -3.43075389      1.51509330     -0.85947008
H      -3.65047452     -0.02365268     -1.75498073
H      -5.70636998      0.55331006     -0.41320683
H      -4.72205612      0.53162056      1.07251189
H      -4.11099050     -1.62644699      0.42298089
