34
CCCCCC(=O)NNC(=O)c1ccncc1
C      -4.79595520      2.08631192      0.42842063
C      -4.60311328      0.67217152     -0.09561925
C      -3.25778682      0.09157426      0.34089875
C      -3.07129870     -1.33417492     -0.18727750
C      -1.74325322     -1.94857900      0.25265001
C      -0.54375736     -1.38637354     -0.48517816
O      -0.60796519     -0.63142021     -1.45253809
N       0.66182019     -1.83870286      0.02166618
N       1.82157546     -1.18463690     -0.44126111
C       2.74881884     -0.81973843      0.51799444
O       2.67069996     -1.19718775      1.68521325
C       3.84193934      0.08971374      0.08312669
C       4.21297050      0.22566145     -1.25546117
C       5.24793238      1.09466003     -1.55438616
N       5.91733458      1.81183533     -0.62758598
C       5.54786961      1.65015979      0.66052282
C       4.52919610      0.80762551      1.06339910
H      -5.76380075      2.48178131      0.10471778
H      -4.01358820      2.75380414      0.05332056
H      -4.76954185      2.10621667      1.52260246
H      -4.66650338      0.68259967     -1.18995685
H      -5.41913884      0.03863158      0.27099179
H      -2.44918958      0.73704150     -0.02071139
H      -3.19942727      0.08658292      1.43622484
H      -3.14904595     -1.34005429     -1.28116270
H      -3.88650743     -1.96150564      0.19394747
H      -1.76818156     -3.02613927      0.05006876
H      -1.60071189     -1.81283121      1.33085000
H       0.72042902     -2.17413649      0.98425207
H       1.67564254     -0.61450944     -1.27457648
H       3.74182252     -0.33433108     -2.05406529
H       5.58185469      1.23886835     -2.57858318
H       6.11183434      2.23424102      1.38254366
H       4.27702640      0.71484031      2.11495204
