28
CC(=O)Oc1ccc(-c2ccccc2)cc1
C       5.66437207      0.01996134     -0.31482101
C       4.21090022      0.31758238     -0.53621566
O       3.79321139      1.15888122     -1.31986207
O       3.45742392     -0.51547732      0.28405795
C       2.07235799     -0.34421438      0.19332505
C       1.46416296      0.83195895      0.62285364
C       0.07255369      0.94200524      0.56443531
C      -0.72154715     -0.12085354      0.09635451
C      -2.18737947      0.00114149      0.03482613
C      -2.79613635      1.06304396     -0.65474557
C      -4.18746682      1.18017940     -0.71472459
C      -4.99432325      0.23653867     -0.08420326
C      -4.41145111     -0.82373930      0.60514880
C      -3.01988911     -0.94006805      0.66314406
C      -0.07681795     -1.30371370     -0.30896073
C       1.31435136     -1.42080100     -0.25601018
H       6.26861223      0.67412417     -0.94991081
H       5.87521787     -1.01817887     -0.58336848
H       5.92683383      0.20969811      0.72896657
H       2.05793645      1.66175119      0.99348337
H      -0.39545028      1.86581858      0.89909434
H      -2.18384976      1.80475800     -1.16423076
H      -4.63844288      2.00728616     -1.25669330
H      -6.07629539      0.32735358     -0.13029247
H      -5.03803019     -1.56048363      1.10087564
H      -2.58492743     -1.76995254      1.21639612
H      -0.66153548     -2.14243186     -0.68177253
H       1.79560865     -2.34216826     -0.56888080
