47
CC1(C)[C@@H](C=C(Cl)Cl)[C@H]1C(=O)OC(C#N)c1cccc(Oc2ccccc2)c1
C      -1.18766644     -1.38946655     -0.64740322
C      -2.61456395     -0.98763968     -0.94426233
C      -3.27871226     -1.88778297     -1.96007672
C      -3.49718710     -0.41435401      0.15250940
C      -3.00411485     -0.28608992      1.53564165
C      -2.89341106     -1.25704213      2.45725487
Cl     -2.31614161     -0.89276320      4.04423196
Cl     -3.30682983     -2.89846979      2.11767493
C      -3.00224412      0.48471881     -0.96379959
C      -2.03938707      1.58435869     -0.73424321
O      -2.26045356      2.48416353      0.06077109
O      -0.94968001      1.48211212     -1.53037017
C       0.02666015      2.52285060     -1.33827844
C      -0.24705970      3.65857084     -2.24630441
N      -0.46230614      4.54188556     -2.97060263
C       1.38480560      1.85850041     -1.53215841
C       2.12114933      1.93934052     -2.72584307
C       3.35194370      1.29021701     -2.84700909
C       3.85577064      0.53863897     -1.78451970
C       3.13409653      0.42688318     -0.59431574
O       3.72888304     -0.33957170      0.38579933
C       2.98400753     -0.65375403      1.49353776
C       2.07361440     -1.71048324      1.45243084
C       1.33079753     -2.02218602      2.59172743
C       1.51734263     -1.29129026      3.76692866
C       2.44993344     -0.25156357      3.80905126
C       3.19501839      0.06244724      2.67265316
C       1.90765987      1.08945867     -0.47137596
H      -0.58259142     -1.34868324     -1.56068116
H      -0.70683103     -0.74686025      0.09616474
H      -1.15201726     -2.41658281     -0.26803208
H      -4.31882045     -1.59491093     -2.15216308
H      -3.28220973     -2.92319901     -1.60502883
H      -2.73704708     -1.85082624     -2.90987829
H      -4.55914341     -0.65128016      0.11640254
H      -2.74493361      0.72306320      1.85368973
H      -3.76717725      0.78184902     -1.67697078
H       0.00868783      2.90217246     -0.30664334
H       1.75565701      2.50721261     -3.58157631
H       3.91889055      1.36829477     -3.77305441
H       4.81393162      0.03510571     -1.88722496
H       1.94101320     -2.28228529      0.53750474
H       0.61084885     -2.83730806      2.56679196
H       0.93548900     -1.53466721      4.65313597
H       2.59955663      0.30801206      4.72820384
H       3.92778174      0.86458527      2.70129315
H       1.33698972      1.01461902      0.45121909
