24
N[C+](N)N.O=C([O-])c1ccccc1
N       1.30505858     -0.48978393     -0.15687366
C      -0.00544375      0.02004805     -0.02770945
N      -0.21929530      1.41253517     -0.14803755
N      -1.11932513     -0.84303971      0.06380799
O       2.80776724      1.47041701     -0.34066094
C       2.36877298      0.27903452     -0.26197910
O       3.07593013     -0.77733474     -0.31005821
C       0.87091474      0.10259131     -0.09632061
C       0.30074672     -1.17774534     -0.00118932
C      -1.07842677     -1.34153250      0.15137803
C      -1.91057450     -0.22506012      0.21130372
C      -1.36419618      1.05379863      0.11876873
C       0.01528895      1.21497338     -0.03376337
H       1.98106034      0.11289236      0.30316469
H       1.40237393     -1.42324042      0.22620197
H       0.49344704      1.82252524     -0.74607879
H      -1.11297186      1.58845362     -0.59985780
H      -1.84581122     -0.44471865      0.65150756
H      -0.87909263     -1.75567172      0.43387503
H       0.95142430     -2.04970636     -0.04807410
H      -1.49453326     -2.34140433      0.22253572
H      -2.98183654     -0.35125171      0.32978223
H      -2.00403766      1.92928306      0.16439572
H       0.44275984      2.21393719     -0.10611850
