19
O=C1NCCN1CCO
O       0.63942429      1.61462430     -1.37771164
C      -0.18435854      0.79742843     -1.00653135
N      -1.55527406      0.91760846     -1.14135535
C      -2.22363827     -0.26362638     -0.67012562
C      -1.15896702     -0.95302241      0.17552679
N       0.07474199     -0.39036100     -0.33221556
C       1.38152042     -0.73622544      0.20788278
C       1.81736424      0.18288764      1.35425683
O       2.33793957      1.42186787      0.87911563
H      -1.94945545      1.64466938     -1.72344731
H      -2.49760987     -0.86523138     -1.54260618
H      -3.12085709     -0.00013711     -0.10518681
H      -1.16771839     -2.04078887      0.06791574
H      -1.25492511     -0.67933942      1.23169064
H       2.10131401     -0.66000480     -0.61483809
H       1.33609987     -1.77749135      0.54275107
H       0.99000235      0.39456155      2.03870206
H       2.61885615     -0.29711009      1.92399949
H       1.81554090      1.68969060      0.09217687
