31
O=C(Cc1ccccc1)OCc1ccccc1
O      -0.99916831      0.13913697      1.58217642
C      -0.59109012      0.01379239      0.43650564
C      -1.43085805     -0.21097497     -0.80275861
C      -2.91630485     -0.27927001     -0.54069139
C      -3.53109398     -1.50422843     -0.24539579
C      -4.90283957     -1.56450994      0.00555096
C      -5.67140417     -0.40274174     -0.03078508
C      -5.06899099      0.82132423     -0.31447399
C      -3.69746176      0.88470992     -0.56583714
O       0.72495297      0.05731794      0.07815621
C       1.61383502      0.26679859      1.17801108
C       3.01943910      0.29193766      0.63642863
C       3.75938067     -0.89349278      0.52236262
C       5.05500813     -0.87182720      0.00332939
C       5.61985714      0.33194380     -0.41393755
C       4.88888314      1.51453540     -0.31705961
C       3.59309816      1.49512955      0.20167035
H      -1.22762757      0.60242878     -1.50986210
H      -1.10586252     -1.14586712     -1.27528229
H      -2.94583233     -2.42003223     -0.20387079
H      -5.37114738     -2.51799456      0.23519696
H      -6.73854402     -0.45028883      0.16878424
H      -5.66688862      1.72868418     -0.33443090
H      -3.24321398      1.85019753     -0.77665705
H       1.50937065     -0.54314193      1.91060093
H       1.38676026      1.21857929      1.67415119
H       3.32851352     -1.84178000      0.83598194
H       5.62261409     -1.79512329     -0.07847258
H       6.62817898      0.34773856     -0.81911690
H       5.32693030      2.45232731     -0.64872904
H       3.03150609      2.42469094      0.26317249
