29
CC1(C)[C@@H]2CC[C@@]1(C)[C@@H](O)C2
C       1.94664409     -1.07927817      0.15015949
C       0.70604146     -0.40847266     -0.47385610
C       0.46823275     -1.12014855     -1.82076373
C       0.81042659      1.13633818     -0.58298767
C       0.90237112      1.59649018      0.88916493
C      -0.01789931      0.60212645      1.61728553
C      -0.53749553     -0.29691468      0.45976122
C      -1.14123904     -1.59715108      0.95717181
C      -1.52274834      0.55327132     -0.39815804
O      -2.50706140      1.22204819      0.37139562
C      -0.58881284      1.56599967     -1.08650872
H       2.81901393     -0.94426754     -0.49988143
H       1.78465733     -2.15669140      0.26900221
H       2.22611485     -0.69513904      1.13324701
H      -0.39022592     -0.75231501     -2.38611890
H       0.30776527     -2.19337071     -1.66733307
H       1.34321131     -1.00456544     -2.47112427
H       1.62626808      1.51325416     -1.20426760
H       1.92750908      1.52792765      1.26798237
H       0.57134971      2.63127645      1.02658113
H      -0.81907904      1.11591647      2.15801301
H       0.54548202      0.02842528      2.36165293
H      -1.49991318     -2.21248580      0.12577117
H      -1.99069806     -1.40737870      1.62170332
H      -0.40937773     -2.18738779      1.51806913
H      -2.04825345     -0.05228002     -1.14442557
H      -3.03741766      0.54332482      0.82181150
H      -0.82485833      2.60615121     -0.83778564
H      -0.65000777      1.46529656     -2.17556166
