36
CCC(=O)OCC1OC(n2cc(I)c(=O)[nH]c2=O)CC1O
C      -3.82768898      0.81481027      1.58456619
C      -2.57994003     -0.04865887      1.53390909
C      -2.44274932     -0.76855870      0.21392527
O      -3.22606617     -0.70103124     -0.72076631
O      -1.28927732     -1.49119400      0.21368631
C      -1.03453466     -2.31504858     -0.94148757
C       0.01505276     -1.70570725     -1.87963260
O       1.23533512     -1.49506065     -1.12910308
C       1.58436778     -0.10380118     -1.21585807
N       2.14827379      0.37524842      0.04311484
C       1.87069507     -0.25617929      1.24339942
C       2.31707149      0.19338028      2.42308996
I       1.87513382     -0.74225433      4.18466414
C       3.14618005      1.42951431      2.42220614
O       3.57374851      1.95767415      3.44369242
N       3.40046968      1.97286498      1.19161189
C       2.89954622      1.54061244     -0.00707074
O       3.10851567      2.18312234     -1.03298470
C       0.31772899      0.64534634     -1.60933787
C      -0.37408129     -0.36007167     -2.49333667
O       0.18022215     -0.26224209     -3.80967249
H      -3.89969579      1.32459345      2.55018646
H      -3.81189211      1.57475595      0.79622084
H      -4.73034169      0.20998656      1.44825241
H      -1.69677742      0.58290426      1.67800160
H      -2.62070744     -0.79578515      2.33339821
H      -1.95567863     -2.55099236     -1.48629898
H      -0.64705167     -3.26004183     -0.54419783
H       0.24372728     -2.43660603     -2.66403488
H       2.34275010     -0.01081976     -2.00386205
H       1.25870022     -1.15225509      1.18874517
H       3.93831604      2.82560367      1.17454629
H       0.54536037      1.59346256     -2.10637837
H      -0.29340790      0.86319487     -0.72720408
H      -1.45230953     -0.21192327     -2.58436069
H      -0.11899518      0.58115651     -4.19502935
