27
ClC1=C(Cl)[C@]2(Cl)[C@@H]3[C@@H]4C[C@H]([C@@H]3[C@@]1(Cl)C2(Cl)Cl)[C@H]1O[C@@H]41
Cl      3.17784026      1.77316560     -0.05893315
C       2.20986860      0.38298103     -0.03759845
C       1.92874607     -0.44102709     -1.05691347
Cl      2.45998179     -0.33101127     -2.66182340
C       0.98610934     -1.50189340     -0.53845744
Cl      0.87432117     -2.97421476     -1.48677897
C      -0.41293899     -0.88391186     -0.21051331
C      -1.19781546      0.04283577     -1.18487622
C      -0.54432744      1.42848848     -1.00465995
C      -0.72561765      1.42690136      0.52722689
C      -0.08159604      0.08729760      0.99088941
C       1.45830757     -0.11781981      1.17366608
Cl      2.03837048      0.43778629      2.73391631
C       1.59784060     -1.66128300      0.90229819
Cl      3.29243544     -2.29422379      0.94659690
Cl      0.65613921     -2.71907183      2.01713075
C      -2.24116746      1.19370386      0.64270500
O      -3.07272072      1.60100584     -0.44680840
C      -2.55677016      0.26863925     -0.50159729
H      -1.08740425     -1.68021786      0.13447812
H      -1.27626086     -0.31537071     -2.21226464
H      -1.10725023      2.23045761     -1.49772419
H       0.47226677      1.52550166     -1.36345513
H      -0.37715462      2.32000130      1.04774825
H      -0.60146319     -0.25586155      1.89643283
H      -2.65940255      1.03595394      1.62340454
H      -3.21033766     -0.57881267     -0.37408925
