36
CCC(=O)OC1C(C)CCCC1(C)C
C       4.64882039     -0.46868082      0.12926670
C       3.36712930      0.00155195     -0.53548617
C       2.15899572     -0.21551935      0.34397799
O       2.17761979     -0.70505241      1.46335083
O       1.04744126      0.22024228     -0.31313445
C      -0.22057017      0.09940821      0.36911709
C      -0.87809748      1.49806065      0.40416352
C      -0.01942947      2.49719972      1.18802796
C      -2.28423115      1.42905313      1.01193663
C      -3.16694328      0.40916119      0.30260447
C      -2.51574022     -0.97117306      0.26838390
C      -1.10016401     -0.96423457     -0.35406925
C      -1.18593257     -0.70277337     -1.87354544
C      -0.47992539     -2.36525715     -0.16603371
H       4.60174413     -1.53775090      0.36186200
H       4.82650266      0.07006985      1.06595905
H       5.50506806     -0.29930927     -0.53077354
H       3.21932227     -0.55088181     -1.46946287
H       3.44524323      1.07076370     -0.75897461
H      -0.07686002     -0.22247003      1.40961618
H      -0.95072145      1.88756673     -0.61927325
H       0.96089643      2.63065786      0.71956693
H      -0.50310084      3.47929513      1.22297918
H       0.13921060      2.16140967      2.21840478
H      -2.21622018      1.16611436      2.07556498
H      -2.76210368      2.41483648      0.96176089
H      -3.38341708      0.75117823     -0.71577299
H      -4.13151119      0.34235697      0.81928134
H      -3.16896433     -1.66227488     -0.27909419
H      -2.45943975     -1.35166154      1.29728541
H      -0.20104682     -0.77298710     -2.34859404
H      -1.59080854      0.28627086     -2.10513076
H      -1.83344503     -1.44163385     -2.35996866
H      -0.36102323     -2.60627563      0.89625183
H       0.50608864     -2.43740976     -0.63740447
H      -1.11438658     -3.13985148     -0.61201369
