51
C[C@H]1O[C@H](OC2[C@@H](O)[C@@H](O)C(O)[C@H](O)[C@H]2O)[C@@H](N)C[C@@H]1N=C(N)C(=O)O
C       1.38950753      1.51956182     -2.01692131
C       1.44525465      0.45801016     -0.92634567
O       0.45232786     -0.52836192     -1.25668893
C       0.16122908     -1.38739250     -0.14306571
O      -0.69832397     -0.71632380      0.77656731
C      -2.10537092     -0.71511447      0.43583802
C      -2.45038651      0.23536456     -0.73655155
O      -2.05895789     -0.36226230     -1.98861678
C      -3.96262626      0.49460337     -0.86335343
O      -4.59854979     -0.70889917     -1.31234470
C      -4.59227184      0.94626927      0.45132664
O      -4.05509730      2.21706684      0.83118085
C      -4.31038188     -0.06619122      1.56069667
O      -4.85091801      0.43933883      2.79660852
C      -2.80343404     -0.27166450      1.73436980
O      -2.59633410     -1.26603080      2.76213739
C       1.46366155     -1.82180000      0.61187807
N       1.38448804     -3.19456827      1.14596994
C       2.68602170     -1.67959019     -0.30989776
C       2.83615849     -0.22430583     -0.81611212
N       3.67823199      0.49261296      0.15545445
C       4.52155577      1.37436628     -0.26540415
N       4.78010728      1.79478737     -1.54977581
C       5.38655097      2.02814897      0.84424038
O       5.69660006      3.20130767      0.78784396
O       5.82007437      1.11559967      1.72301280
H       1.73173499      1.12061018     -2.97551892
H       0.36168864      1.85740813     -2.16872988
H       1.99327268      2.38828399     -1.75646121
H       1.16720808      0.94391061      0.01862203
H      -0.34012024     -2.27498893     -0.54789228
H      -2.39106993     -1.74838565      0.19907035
H      -1.90615559      1.17899063     -0.63594574
H      -1.08012212     -0.33256973     -2.00386633
H      -4.12610794      1.25010513     -1.64076464
H      -4.02812578     -1.03146269     -2.04212641
H      -5.67107390      1.07243108      0.34061304
H      -4.45117289      2.40051088      1.70857889
H      -4.81142997     -1.01944535      1.36032564
H      -4.49435265     -0.16357442      3.48074602
H      -2.33547743      0.64550709      2.12583335
H      -1.63598334     -1.45456163      2.74712984
H       1.59553170     -1.16191032      1.47828492
H       1.60335952     -3.86047007      0.40671209
H       2.12482201     -3.31182556      1.83542449
H       3.59941097     -2.00787858      0.20350987
H       2.55962567     -2.33857659     -1.18238271
H       3.32229345     -0.28654241     -1.80004041
H       4.01846994      1.77589084     -2.21248882
H       5.29235370      2.67972968     -1.58099985
H       5.28230360      0.30428089      1.62156944
