38
NC(Cc1ccc(O)c(O)c1)C(=O)OCc1ccccc1
N      -1.48529876     -1.92808479     -3.76807870
C      -1.18043371     -1.37920815     -2.42023411
C      -2.38769525     -0.57646966     -1.90805015
C      -2.20138862      0.05991857     -0.54740950
C      -2.24965943      1.46043780     -0.41786109
C      -2.08224077      2.06983536      0.82637054
C      -1.86170798      1.27811162      1.94163492
O      -1.68375248      1.87258225      3.15712032
C      -1.81019216     -0.10861695      1.83060199
O      -1.57777020     -0.82552873      2.97274066
C      -1.98443314     -0.72648098      0.59556802
C       0.06425182     -0.48439625     -2.49706466
O       0.35355175      0.22048447     -3.45779364
O       0.78940902     -0.59479536     -1.35464168
C       1.91762400      0.27743721     -1.28129102
C       2.40427342      0.25642758      0.14303415
C       3.34313443     -0.69399841      0.56719969
C       3.75943898     -0.73186212      1.89934377
C       3.23746095      0.17482416      2.81997389
C       2.28973929      1.11040981      2.41345078
C       1.87354785      1.15152081      1.08253202
H      -0.66433930     -2.43102851     -4.10798882
H      -1.57995903     -1.13676083     -4.40983043
H      -0.96429313     -2.23085016     -1.76718770
H      -2.64101709      0.20650303     -2.63674271
H      -3.26868169     -1.23091399     -1.85436959
H      -2.42217661      2.08955555     -1.28880340
H      -2.12273076      3.14957807      0.92431240
H      -1.56888312      1.12266280      3.77533591
H      -1.45830047     -1.75721480      2.72348767
H      -1.95385361     -1.80829209      0.51152758
H       1.64625557      1.30006369     -1.56732719
H       2.70303299     -0.07791634     -1.95731378
H       3.74543184     -1.42139132     -0.13606692
H       4.48976930     -1.47241627      2.21806386
H       3.55614482      0.14084835      3.85767250
H       1.85859787      1.80008380      3.13511974
H       1.11714342      1.87494077      0.78879197
