25
NS(=O)(=O)c1cc2c(cc1Cl)NCNS2(=O)=O
N       3.62162226     -1.28224898      0.57528628
S       3.35720440      0.37922566      0.51102778
O       3.65060906      0.84675238      1.84454316
O       4.06638948      0.81923410     -0.66616926
C       1.62630903      0.54781824      0.22326832
C       0.82169940     -0.58569689      0.07326439
C      -0.55120842     -0.42526834     -0.14769852
C      -1.15848467      0.83058469     -0.21106686
C      -0.32292155      1.95035798     -0.09822619
C       1.05707674      1.81966043      0.13259559
Cl      1.96374834      3.28237458      0.27537288
N      -2.50803521      1.01834693     -0.53346063
C      -3.41450423     -0.08021695     -0.29484109
N      -2.94453237     -1.22175582     -1.02843205
S      -1.54205962     -1.86103368     -0.38508540
O      -0.92969475     -2.65579299     -1.42535493
O      -1.83816279     -2.39219977      0.92593895
H       4.25230336     -1.55148127     -0.18280675
H       3.97938490     -1.52963517      1.50024559
H       1.23890348     -1.58937735      0.11629625
H      -0.74807789      2.94811280     -0.19654709
H      -2.87482853      1.90049794     -0.17987191
H      -3.53553620     -0.28676785      0.77460852
H      -4.40383191      0.19291510     -0.67667813
H      -2.86337232     -1.07440576     -2.03142783
