55
CC(=O)[C@H]1CC[C@H]2[C@@H]3CC=C4C[C@@H](O)CC[C@]4(C)[C@H]3CC[C@]12C
C       6.03760456      0.62113444      1.43868059
C       4.58243180      0.36607243      1.74479196
O       4.23847375      0.03818751      2.88037425
C       3.57444245      0.62928317      0.62811454
C       4.02395969      0.11519188     -0.76004392
C       2.74093690     -0.23920372     -1.53246563
C       1.61949757      0.26136734     -0.62903876
C       0.20288622     -0.27979554     -0.85130008
C      -0.27690167      0.02346163     -2.27928841
C      -1.75314569     -0.13662830     -2.46059295
C      -2.64025605     -0.25592745     -1.45633086
C      -4.11231142     -0.44325876     -1.76080108
C      -4.98967110      0.54247929     -0.98936298
O      -6.36092663      0.21814330     -1.20901507
C      -4.69047295      0.48855785      0.50575364
C      -3.20985082      0.74333709      0.78613630
C      -2.23720000     -0.20673023      0.02532028
C      -2.36003761     -1.63687262      0.60352588
C      -0.76762785      0.35493423      0.18657101
C      -0.21872345      0.28633216      1.63737063
C       1.23943745      0.75707152      1.77126110
C       2.16196511      0.01325956      0.79551336
C       2.23949348     -1.49051064      1.16881128
H       6.15047454      1.60529553      0.97701235
H       6.42428102     -0.15677384      0.77714410
H       6.61414844      0.60805285      2.36825466
H       3.48477626      1.72420621      0.57236068
H       4.59152071      0.89094305     -1.28652405
H       4.67017725     -0.76674042     -0.68968814
H       2.72217075      0.24308724     -2.51509289
H       2.67673931     -1.32120438     -1.69292516
H       1.56401320      1.35194817     -0.78751545
H       0.20774047     -1.36872440     -0.72960765
H       0.23803177     -0.64533261     -2.97951959
H      -0.01208399      1.04848471     -2.56710061
H      -2.09864189     -0.16095119     -3.49260955
H      -4.31869624     -0.33250424     -2.83332719
H      -4.40913918     -1.47243025     -1.52231242
H      -4.82301013      1.55822121     -1.36857508
H      -6.89514854      0.86580354     -0.71819080
H      -5.00204867     -0.47857497      0.91908885
H      -5.29880338      1.23665992      1.02909084
H      -3.04956735      0.66615845      1.86812019
H      -2.99137226      1.78540860      0.51539683
H      -2.22954359     -1.64607860      1.69047059
H      -1.61863510     -2.31587311      0.17001484
H      -3.34293475     -2.08045515      0.41258755
H      -0.80762246      1.42900760     -0.05836035
H      -0.28709211     -0.73351871      2.02697416
H      -0.83536477      0.90835171      2.29579457
H       1.57263585      0.61397282      2.80570280
H       1.27865602      1.83739339      1.58090725
H       2.98189249     -2.03244747      0.57469795
H       1.28665546     -2.00869391      1.03251120
H       2.51178714     -1.62257789      2.22098153
