44
Cc1ccc(S(=O)(=O)Oc2c(C(=O)c3ccc(Cl)cc3Cl)c(C)nn2C)cc1
C       6.14915045      2.77012253      0.69023659
C       5.02304743      1.87092925      0.27034656
C       5.20797118      0.93994429     -0.76131581
C       4.15378630      0.12459635     -1.17666012
C       2.90523367      0.25213398     -0.56356145
S       1.56082140     -0.79349317     -1.06439010
O       2.13015175     -1.93297689     -1.76366716
O       0.58156727      0.05819452     -1.71606913
O       0.95357674     -1.35624817      0.35132861
C      -0.29170750     -1.83054117      0.38544782
C      -1.50765106     -1.18930912      0.54392400
C      -1.65164768      0.24083910      0.75553998
O      -0.77562860      0.93303194      1.26679523
C      -2.86489407      0.90820260      0.25648447
C      -3.03650098      1.01563623     -1.13157754
C      -4.15983610      1.66863118     -1.64054244
C      -5.09796734      2.21588043     -0.76520991
Cl     -6.48324848      3.01727660     -1.39565169
C      -4.92523021      2.11932325      0.61582242
C      -3.80193541      1.46737497      1.13088800
Cl     -3.65310817      1.34106134      2.84534675
C      -2.46913333     -2.23543320      0.43692209
C      -3.94894572     -2.17102218      0.55184684
N      -1.88996891     -3.42322754      0.21730237
N      -0.57212951     -3.15654391      0.21212922
C       0.36404365     -4.23547947      0.00245785
C       2.70139610      1.18321670      0.45712505
C       3.76040542      1.99482584      0.86638576
H       6.06102778      3.03810695      1.74835666
H       6.13987382      3.68562178      0.09084795
H       7.11564527      2.27168205      0.56125320
H       6.17741067      0.84548009     -1.24689539
H       4.31501933     -0.59684998     -1.97459005
H      -2.29269525      0.60860468     -1.81601786
H      -4.29266570      1.75450112     -2.71687478
H      -5.66389282      2.55069321      1.28712749
H      -4.38227338     -1.68231363     -0.32571044
H      -4.24384185     -1.61741076      1.44800946
H      -4.38788201     -3.17190958      0.62622989
H       0.42033259     -4.43205847     -1.07077406
H       1.34446979     -3.95061727      0.39093789
H       0.00611134     -5.12056714      0.53500515
H       1.72805422      1.29303478      0.93101472
H       3.59368791      2.72705590      1.65439592
