46
CC1(C)SC2C(NC(=O)C3(N)CCCCC3)C(=O)N2C1C(=O)O
C      -5.46227763      1.44737096      0.71675313
C      -4.30186433      0.69239418      0.05727032
C      -4.79318416      0.13599713     -1.29114373
S      -2.95988942      1.92290410     -0.30473117
C      -1.59704473      0.82816070      0.25228754
C      -0.83970432      0.08842070     -0.88499075
N       0.61442174     -0.17009456     -0.67375876
C       1.51191734      0.85839400     -0.50456498
O       1.14237636      2.03308101     -0.48822623
C       3.00917511      0.45187670     -0.32477373
N       3.80698309      1.69347122     -0.15513439
C       3.51900689     -0.29603745     -1.57304531
C       4.94154920     -0.83485718     -1.40523563
C       5.07111955     -1.69750139     -0.15313652
C       4.60351399     -0.95945363      1.09797997
C       3.18042811     -0.42075257      0.93505034
C      -1.75747232     -1.10214635     -0.50274511
O      -2.04060512     -2.17969250     -0.97080720
N      -2.23532222     -0.45076060      0.59503418
C      -3.65902538     -0.42703732      0.91618736
C      -3.86934402     -0.25879002      2.42461700
O      -4.93856923     -0.37027922      3.00726029
O      -2.76471296      0.06526307      3.12792434
H      -5.88179098      2.20724399      0.04583340
H      -6.27878898      0.76076523      0.96804100
H      -5.15820679      1.96195021      1.63523734
H      -3.99692209     -0.34583160     -1.86690302
H      -5.22291408      0.92369049     -1.92181504
H      -5.57761397     -0.61331527     -1.13200101
H      -0.99117687      1.22498220      1.07183569
H      -1.02269745      0.45638034     -1.90086855
H       0.95092267     -1.12654501     -0.69658676
H       3.62554859      2.29586101     -0.96267109
H       3.40381354      2.22209638      0.62313677
H       2.85985012     -1.14267487     -1.80303405
H       3.47774598      0.35743538     -2.45440018
H       5.21326288     -1.42701944     -2.28669790
H       5.65445556     -0.00325319     -1.35443970
H       4.47685558     -2.61108587     -0.27884863
H       6.11365632     -2.01101679     -0.02795377
H       4.63995674     -1.63830589      1.95780277
H       5.29350062     -0.13638309      1.31901912
H       2.89877652      0.14426753      1.83338386
H       2.49476504     -1.27686497      0.89853415
H      -4.07700315     -1.40970161      0.66265926
H      -3.07747134      0.13739386      4.05424192
