30
CCOP(=S)(OCC)Oc1cc(Cl)c(Br)cc1Cl
C      -1.66966860      4.02673414      0.64409369
C      -0.61871708      3.21913278     -0.09049905
O      -1.11258865      1.90408087     -0.28055773
P      -0.10325582      0.77401350     -0.85292032
S       0.60341031      1.07405645     -2.63401899
O      -0.98710890     -0.56651119     -0.64801123
C      -2.19328937     -0.70308290     -1.37892948
C      -2.96471382     -1.87838179     -0.81404645
O       0.97931009      0.66798359      0.35401269
C       1.67782243     -0.48887584      0.56994533
C       2.81886896     -0.75085225     -0.18713637
C       3.54826541     -1.92289380      0.03791734
Cl      4.94633425     -2.19045719     -0.94025372
C       3.13735845     -2.82165392      1.03121253
Br      4.06811867     -4.43544705      1.40121405
C       2.00374356     -2.54279601      1.80239320
C       1.27912896     -1.37257406      1.57614296
Cl     -0.09394313     -1.04277853      2.56661752
H      -2.60635251      4.04763611      0.07718117
H      -1.33103656      5.05411134      0.80510519
H      -1.89452902      3.57285810      1.61508570
H       0.30643064      3.19168984      0.49322946
H      -0.41265756      3.67484137     -1.06345898
H      -1.96033323     -0.88241858     -2.43270541
H      -2.79092055      0.20979689     -1.29747499
H      -3.18940834     -1.71812499      0.24567160
H      -3.90285490     -2.02612194     -1.35596335
H      -2.37084890     -2.79630524     -0.87793680
H       3.14738778     -0.04563858     -0.94712781
H       1.68604741     -3.23202113      2.58121829
