24
c1ccc(N=Nc2ccccc2)cc1
C       4.47184085      0.14326861      0.30678301
C       3.80632655     -0.64376469     -0.63186412
C       2.41618950     -0.76812976     -0.57673995
C       1.67779251     -0.10021601      0.40984447
N       0.28040243     -0.23146475      0.50944321
N      -0.27822503      0.19364633     -0.52613100
C      -1.67627474      0.07385411     -0.42147593
C      -2.30460837     -1.17102076     -0.27945194
C      -3.69667025     -1.26194539     -0.20957033
C      -4.47389774     -0.10753172     -0.29100997
C      -3.86144467      1.13534074     -0.44542511
C      -2.46898637      1.22279531     -0.51479386
C       2.35973412      0.67588908      1.35312719
C       3.74995433      0.80223418      1.30092419
H       5.55381320      0.24082170      0.26527561
H       4.36723039     -1.16200044     -1.40514050
H       1.90067407     -1.38739503     -1.30606403
H      -1.70154119     -2.07332743     -0.22194865
H      -4.17191172     -2.23242874     -0.09361405
H      -5.55750002     -0.17676447     -0.23700434
H      -4.46574961      2.03611528     -0.51359543
H      -1.99365653      2.19223960     -0.63939500
H       1.79920908      1.18705533      2.13146047
H       4.26729921      1.41272891      2.03636603
