29
CC(C[N+](C)(C)C)OC(N)=O.[Cl-]
C       1.00276501     -0.68231492     -2.18839951
C       0.97010245     -0.03997450     -0.80294056
C      -0.09030223     -0.71137934      0.10887366
N      -1.41728489      0.07513190      0.27809309
C      -1.18255189      1.37924262      1.04484319
C      -2.36805931     -0.78914599      1.11199282
C      -2.08341408      0.37559385     -1.05338778
O       2.29535392     -0.21659900     -0.25200183
C       2.58386080      0.55531289      0.82075455
N       3.85675441      0.35786785      1.21402452
O       1.79876651      1.31232701      1.36770186
Cl      0.00000000      0.00000000      0.00000000
H       0.04492347     -0.58953700     -2.70618802
H       1.77554338     -0.21084769     -2.80577051
H       1.26433177     -1.74436821     -2.12162779
H       0.79398455      1.03252853     -0.93464770
H      -0.36943923     -1.69374824     -0.29224999
H       0.29479274     -0.87774101      1.12165172
H      -0.55843595      2.04125931      0.44172300
H      -0.70926382      1.13913313      2.00047886
H      -2.15480402      1.85178866      1.21688486
H      -2.55776125     -1.71826369      0.56636108
H      -3.30142364     -0.23747285      1.25945535
H      -1.89208706     -0.99876102      2.07454448
H      -2.21462112     -0.56596094     -1.59403395
H      -1.45211558      1.06498258     -1.61921866
H      -3.05477323      0.84043973     -0.85848210
H       4.48300144     -0.20058605      0.65180402
H       4.24215684      0.93409555      1.94976134
