14
CCOC(=O)CCl
C      -2.31044811      0.26119938      0.38700120
C      -1.12897376      0.00541672     -0.52823359
O       0.06577515      0.03935285      0.26361520
C       1.21611400     -0.17876044     -0.44597619
O       1.25218071     -0.38697423     -1.65019491
C       2.39024322     -0.11642907      0.50230488
Cl      3.92574926     -0.39057597     -0.34510792
H      -2.35710688     -0.49573744      1.17691980
H      -2.21103170      1.23266846      0.88244627
H      -3.24913459      0.24498932     -0.17378257
H      -1.23212490     -0.97848041     -0.99931451
H      -1.08329428      0.78253614     -1.29934288
H       2.28644339     -0.89209933      1.26518480
H       2.43560849      0.87289404      0.96448044
