30
N#Cc1c(N)nc2nc(C3CCC3)ncc2c1N
N       6.05278561      0.06065668      0.25064984
C       4.89395138     -0.01396342      0.26752548
C       3.46388784     -0.05759952      0.27796306
C       2.80203267     -1.28078802      0.31251656
N       3.46982210     -2.50209833      0.39196939
N       1.46171728     -1.38139878      0.32403262
C       0.70685263     -0.28758431      0.25369526
N      -0.60605965     -0.47295503      0.21700899
C      -1.40191996      0.60068572      0.11717042
C      -2.93754349      0.37096182      0.07583657
C      -3.51731766     -0.64529275     -0.94997702
C      -4.59505768     -0.98504175      0.09848339
C      -3.59438923     -0.51564490      1.17298992
N      -0.96390155      1.86338086      0.04498453
C       0.36966343      2.02322275      0.08664775
C       1.28386988      0.98129104      0.20720865
C       2.69798296      1.11846386      0.27900647
N       3.30603661      2.38913606      0.14122460
H       2.76804488     -3.24096036      0.37181941
H       4.17052848     -2.63355625     -0.33055259
H      -3.47165433      1.33236078     -0.00210519
H      -3.88948309     -0.21529903     -1.88380890
H      -2.85676936     -1.48757694     -1.18719022
H      -4.89370318     -2.03475029      0.15174288
H      -5.49254872     -0.35993545      0.02772488
H      -4.03116119      0.02302865      2.01827593
H      -2.95658543     -1.32002111      1.55796722
H       0.68874072      3.05806924      0.01072076
H       2.78551239      3.17029875      0.53027731
H       4.28666565      2.44291004      0.41751067
