43
CCCCOC(=O)C(C)c1ccc2cc(OC)ccc2c1
C       4.67072125      2.56796963     -0.05039926
C       4.87902850      1.06590580      0.06277393
C       3.55067654      0.32752876      0.19527441
C       3.75417940     -1.17834712      0.32385575
O       2.48244412     -1.82379868      0.48383489
C       1.85216758     -2.19215383     -0.66917072
O       2.30727873     -2.04768843     -1.79702305
C       0.48452816     -2.77955159     -0.34746111
C       0.12587047     -3.88193707     -1.34627225
C      -0.57469964     -1.69362851     -0.27303586
C      -0.95131658     -0.96129483     -1.40631215
C      -1.90933835      0.05072696     -1.31375420
C      -2.51180210      0.36221005     -0.08545944
C      -3.47143281      1.38598774      0.02159108
C      -4.05625371      1.69148372      1.25226773
O      -4.98947550      2.66418974      1.48193480
C      -5.41481080      3.42724939      0.35890603
C      -3.68242973      0.96783434      2.38434071
C      -2.73375718     -0.05134077      2.29521313
C      -2.13811406     -0.36540411      1.06556330
C      -1.17500445     -1.38313480      0.95790196
H       5.63454530      3.07765063     -0.14570475
H       4.16290012      2.96298405      0.83736555
H       4.06605277      2.81524877     -0.93003677
H       5.41611756      0.70910952     -0.82372220
H       5.51128059      0.85433378      0.93239864
H       2.99898922      0.69206710      1.07146497
H       2.91227568      0.54312185     -0.66986636
H       4.30766402     -1.58990794     -0.52934267
H       4.33892285     -1.40440895      1.22203863
H       0.56856251     -3.27606575      0.62947799
H      -0.83677341     -4.33777677     -1.09389757
H       0.06022355     -3.50832714     -2.37287410
H       0.88847601     -4.66952911     -1.33845519
H      -0.49374612     -1.16153133     -2.37411659
H      -2.17619992      0.60039572     -2.21418298
H      -3.74225353      1.93572046     -0.87494655
H      -6.15726515      4.15102967      0.70862579
H      -4.58134628      3.99044409     -0.07539411
H      -5.89738840      2.79047172     -0.39089194
H      -4.13264740      1.20113005      3.34626647
H      -2.46251209     -0.59368125      3.19717587
H      -0.88433772     -1.93528556      1.85090362
