17
CCC(C)(C)Cl
C       2.01390965     -0.00498571      0.53360797
C       0.70937164      0.74289540      0.28008740
C      -0.38514998     -0.04758774     -0.47075063
C      -0.75724742     -1.34819633      0.24812824
C      -1.63483860      0.83102357     -0.61679868
Cl      0.18624000     -0.46194536     -2.12778132
H       2.72501463      0.65499631      1.04181431
H       2.48150938     -0.33846509     -0.39690515
H       1.85923520     -0.87516704      1.17791583
H       0.94297420      1.66130961     -0.27457615
H       0.31460578      1.06756256      1.25183161
H      -1.06826930     -1.14907166      1.27981963
H       0.07979124     -2.05360969      0.28148210
H      -1.58905402     -1.85631626     -0.25381498
H      -2.03917735      1.10323944      0.36485455
H      -2.42860285      0.31310828     -1.16752223
H      -1.41031220      1.76120972     -1.15139249
