58
CC#CCC(C)[C@H](O)/C=C/[C@@H]1[C@H]2C/C(=C/CCCC(=O)O)C[C@H]2C[C@H]1O
C      -8.77635525      0.65797348     -1.78079999
C      -7.81882053      0.08345806     -0.83574571
C      -7.03356170     -0.38460039     -0.05656649
C      -6.07596484     -0.95966679      0.90428256
C      -4.63535618     -0.47018370      0.64994317
C      -4.49231837      1.00320121      1.06479671
C      -3.63618043     -1.38693720      1.39270756
O      -3.89092204     -1.34995534      2.79232510
C      -2.19299486     -1.05300182      1.09248746
C      -1.27756053     -0.58430554      1.95949834
C       0.17210443     -0.23559650      1.68324050
C       0.56860453      0.00855073      0.21111008
C       1.51491079      1.20814637      0.03658487
C       2.44085822      0.78062962     -1.07310762
C       3.26179625      1.62749213     -1.71432504
C       4.20428845      1.26999747     -2.82887651
C       5.67445179      1.42177390     -2.42999920
C       6.10449275      0.42591910     -1.35152552
C       7.57548228      0.53331969     -1.05655406
O       8.37596833      1.31713201     -1.53607798
O       7.97262028     -0.37800679     -0.14615865
C       2.30845562     -0.69723822     -1.32841774
C       1.42720591     -1.19384310     -0.19058136
C       2.16729490     -1.54389483      1.09748673
C       1.08603665     -1.39263041      2.16294623
O       1.65863310     -1.09679079      3.42832066
H      -9.54876440      1.22678644     -1.25434975
H      -8.27492873      1.33343220     -2.48042598
H      -9.26935158     -0.12762992     -2.36139552
H      -6.39028047     -0.71819564      1.92649052
H      -6.11819423     -2.05184022      0.81043115
H      -4.42287544     -0.53635136     -0.42645877
H      -4.68824175      1.14049404      2.13292455
H      -5.19246520      1.63790501      0.51195011
H      -3.48676731      1.38015280      0.85317223
H      -3.80162862     -2.42307571      1.07081613
H      -3.24388353     -1.94274531      3.21116848
H      -1.90983054     -1.23313613      0.05799232
H      -1.57426545     -0.40631157      2.99394308
H       0.37058217      0.67455241      2.26489708
H      -0.28203483      0.13797830     -0.46687347
H       2.09853708      1.40521337      0.94337206
H       0.95083624      2.11152034     -0.21752706
H       3.25796967      2.67750959     -1.42315388
H       4.02652968      0.25300141     -3.19685618
H       3.99661991      1.93995315     -3.67274489
H       5.86725715      2.44665419     -2.08672358
H       6.29316339      1.27638631     -3.32499486
H       5.56117054      0.61230854     -0.41922442
H       5.89899323     -0.59599225     -1.68910773
H       8.93082571     -0.20096631     -0.03923601
H       1.79922838     -0.85357428     -2.28620776
H       3.27322913     -1.21256526     -1.34577135
H       0.80828894     -2.04278088     -0.50507892
H       3.01446190     -0.87649987      1.29781554
H       2.56919587     -2.56245185      1.07262579
H       0.52666355     -2.33199713      2.25699770
H       2.27679001     -1.81563001      3.64453926
