74
CC(C)CCCCCCOC(=O)CCCCC(=O)OCCCCCCC(C)C
C      -8.78301100      3.54156708      1.30532733
C      -8.27778032      2.36842472      0.46432373
C      -8.71218090      2.55245631     -0.99255328
C      -6.74690309      2.21321479      0.53495810
C      -6.16782558      1.96266608      1.93273624
C      -6.72285472      0.74139555      2.67306733
C      -6.59890418     -0.59463231      1.93499782
C      -5.15315841     -1.00167966      1.65544129
C      -5.08094936     -2.37685038      0.99697451
O      -3.71070388     -2.75940913      0.79893955
C      -3.13408691     -2.32449037     -0.35781737
O      -3.67946745     -1.62884688     -1.20145659
C      -1.71026276     -2.82904401     -0.42282702
C      -1.04283456     -2.48506379     -1.75404051
C       0.32916712     -3.13977375     -1.93159691
C       1.37746639     -2.63883358     -0.93833870
C       2.73068941     -3.26539007     -1.18775071
O       3.00089430     -4.02626596     -2.10511725
O       3.60390751     -2.84736455     -0.22742587
C       4.93642650     -3.37329146     -0.32448373
C       5.79908728     -2.51576352     -1.24797154
C       5.95411458     -1.08244180     -0.72808479
C       6.85871343     -0.25875373     -1.64764949
C       6.99710951      1.20652702     -1.21986961
C       7.78165823      1.38394430      0.08477907
C       7.93184103      2.85573469      0.51643521
C       8.75522433      3.67712551     -0.47686037
C       8.58068310      2.92487236      1.90160615
H      -9.86528909      3.66571294      1.18832353
H      -8.30201895      4.47962833      1.00746416
H      -8.58912361      3.38152901      2.37032135
H      -8.75213988      1.45130622      0.83268922
H      -8.28652716      3.46545256     -1.42316369
H      -9.80299077      2.61909259     -1.06751473
H      -8.38811613      1.70450313     -1.60554414
H      -6.27552315      3.11966623      0.13214359
H      -6.43686497      1.39702567     -0.12939918
H      -5.07908093      1.86650553      1.84222598
H      -6.32880758      2.84948995      2.55742115
H      -6.20769680      0.66136262      3.63867251
H      -7.77946158      0.91106365      2.91118966
H      -7.16431222     -0.56192277      0.99692388
H      -7.07329185     -1.36778829      2.55242182
H      -4.57540070     -1.01611408      2.58784109
H      -4.66386923     -0.26539677      1.00847828
H      -5.63781195     -2.40625396      0.05263846
H      -5.52665586     -3.13171016      1.65397693
H      -1.15865767     -2.37650748      0.40703724
H      -1.72922247     -3.91648099     -0.29187394
H      -0.95031863     -1.39618176     -1.85162783
H      -1.68811886     -2.81382253     -2.57882315
H       0.67705731     -2.93832796     -2.95312481
H       0.23070938     -4.22980640     -1.85104571
H       1.48335129     -1.55226722     -1.02620098
H       1.07842669     -2.88976704      0.08414458
H       5.35529153     -3.37627013      0.68787579
H       4.92158798     -4.41678009     -0.66090194
H       5.35116549     -2.48416655     -2.24806073
H       6.78711700     -2.98087569     -1.34336444
H       6.37292700     -1.11527421      0.28317829
H       4.97120583     -0.60227106     -0.65863443
H       6.44415809     -0.27982786     -2.66314380
H       7.85203298     -0.72018738     -1.70337782
H       6.00288783      1.65865936     -1.12111242
H       7.50939343      1.73673132     -2.03030393
H       7.27006539      0.84161358      0.88839807
H       8.77382449      0.92707724     -0.02174937
H       6.93357310      3.30519100      0.59057580
H       8.92011673      4.69246213     -0.09940688
H       9.73496423      3.22031351     -0.65397170
H       8.24320155      3.77024411     -1.43906926
H       9.58762478      2.49329951      1.89096646
H       8.66026735      3.96259133      2.24288470
H       7.98429096      2.37744540      2.63939815
