53
C#C[C@@]1(OC(C)=O)CC[C@H]2[C@@H]3CCC4=CC(=O)CC[C@@H]4[C@H]3CC[C@@]21C
C       4.49634232      0.02560825      2.94121755
C       3.81732407     -0.06703335      1.95431517
C       2.99485861     -0.17223290      0.73309292
O       3.20556580      0.98916782     -0.11345312
C       4.44609739      1.25014140     -0.60273318
C       4.41226378      2.52001175     -1.39794396
O       5.44829230      0.56883926     -0.44716906
C       3.23081028     -1.48588871     -0.06524211
C       1.86647088     -1.89948823     -0.65793681
C       0.92952537     -0.74746431     -0.31288642
C      -0.58060342     -1.00451574     -0.31872775
C      -1.06760726     -1.52284833     -1.67833762
C      -2.56841329     -1.78935993     -1.64817669
C      -3.35585785     -0.58612153     -1.19150092
C      -4.44948728     -0.20105802     -1.87177907
C      -5.33463655      0.86829145     -1.35605430
O      -6.28156966      1.25401747     -2.03606940
C      -5.08353571      1.36725741      0.04264568
C      -3.59002859      1.44647416      0.31226193
C      -2.86542937      0.10370215      0.07601035
C      -1.32107058      0.31724800      0.03733049
C      -0.77672897      0.94882721      1.34284131
C       0.75642192      1.08202062      1.36583979
C       1.45851014     -0.25307385      1.05499248
C       1.17919023     -1.25697939      2.21262230
H       5.11031490      0.10844652      3.80816105
H       3.74386362      2.40261324     -2.25456740
H       5.41743300      2.74446740     -1.76616610
H       4.08335415      3.34659155     -0.76296817
H       3.95246633     -1.36789605     -0.87885509
H       3.59913955     -2.29393654      0.57852669
H       1.52851970     -2.84251707     -0.21378614
H       1.93753604     -2.05250620     -1.73993590
H       1.11144074      0.03446021     -1.06787882
H      -0.82778964     -1.76831393      0.42845516
H      -0.55138117     -2.45428172     -1.93773395
H      -0.83367616     -0.79688200     -2.46761074
H      -2.77475648     -2.61831409     -0.95898325
H      -2.88961426     -2.12217019     -2.64263822
H      -4.78466278     -0.68707373     -2.78123531
H      -5.58017576      0.69345158      0.74900418
H      -5.52588364      2.36397402      0.14541096
H      -3.15548632      2.21908004     -0.33658852
H      -3.44134400      1.77763153      1.34634579
H      -3.10283980     -0.56452917      0.91586750
H      -1.10709999      1.03646579     -0.76888196
H      -1.11524703      0.36463061      2.20613481
H      -1.19332422      1.95421129      1.47266998
H       1.07558612      1.46369770      2.34306781
H       1.03538056      1.84705478      0.63096320
H       1.69560175     -2.21220730      2.07684956
H       0.11743871     -1.48826414      2.32846516
H       1.50850147     -0.84342678      3.17274816
