36
COCC(C)OCC(C)OCC(C)O
C      -3.86899900      2.80737718     -0.08370679
O      -3.57504965      1.53721478      0.48307800
C      -2.23503938      1.13335694      0.19911072
C      -1.94142002     -0.22085938      0.86353998
C      -1.98792083     -0.10074517      2.38490382
O      -0.62455525     -0.67569007      0.52050314
C      -0.59514183     -1.41496968     -0.71176431
C       0.86846432     -1.71937725     -1.05627491
C       0.96726963     -2.66893990     -2.24209549
O       1.50106107     -0.48458603     -1.43012050
C       2.75784544     -0.25506703     -0.78316375
C       2.57249958      0.56185262      0.50519335
C       3.91363271      1.01021359      1.06581936
O       1.92375935     -0.21316063      1.51412626
H      -4.90359708      3.06225680      0.16091876
H      -3.21152975      3.57511642      0.33543376
H      -3.76501375      2.77455579     -1.17250019
H      -1.52739741      1.88979289      0.56150848
H      -2.10462331      1.06073750     -0.88619366
H      -2.69285164     -0.96266950      0.56408258
H      -2.97512800      0.21352089      2.73626889
H      -1.74584320     -1.06345253      2.84846802
H      -1.24134287      0.61617089      2.74446055
H      -1.15781053     -2.34474651     -0.57337711
H      -1.05546907     -0.82213655     -1.50908419
H       1.35849662     -2.16713200     -0.18335907
H       0.49948682     -2.23547516     -3.13298512
H       2.01639120     -2.85464721     -2.49616404
H       0.48707498     -3.62775579     -2.02460627
H       3.36397828      0.32198489     -1.48992068
H       3.27693185     -1.20297779     -0.59773435
H       1.94142518      1.43633337      0.30981106
H       4.54170759      0.14820830      1.31673007
H       4.45265921      1.64186981      0.35330027
H       3.77057508      1.57529691      1.99329794
H       0.99547369     -0.33147137      1.21614620
