22
COc1cc(Cl)c(OC)cc1N
C       3.56084355     -0.44225229      0.77567444
O       2.56575166      0.53159094      0.48568525
C       1.28107949      0.07522969      0.30925987
C       0.91551384     -1.26520444      0.19400457
C      -0.42913484     -1.60860221      0.01654065
Cl     -0.81670457     -3.29108653     -0.12085701
C      -1.42846124     -0.62460439     -0.03712998
O      -2.71885181     -1.06138167     -0.19015341
C      -3.75047443     -0.08387861     -0.20040822
C      -1.05246105      0.71770510      0.07312236
C       0.29619723      1.07764672      0.20302277
N       0.63081687      2.42796612      0.43280891
H       3.73364907     -1.09386034     -0.08691962
H       3.30175037     -1.02382931      1.66673884
H       4.49540594      0.08740245      0.98419392
H       1.65130100     -2.06020175      0.23804178
H      -3.78480127      0.46442664      0.74675077
H      -3.63955338      0.59770905     -1.05008808
H      -4.70482866     -0.60655195     -0.31639000
H      -1.79161761      1.51110629      0.06733246
H       0.05481415      3.09132487     -0.07273363
H       1.62976569      2.57934561      0.29382979
