17
N#CSCC(CSC#N)SC#N
N      -3.65696346     -2.68608908      0.25905680
C      -2.91595990     -1.95873626      0.77315755
S      -1.81250892     -0.89622070      1.48722247
C      -0.91367989     -0.41416936     -0.02694996
C       0.26013014      0.56774737      0.19498251
C       1.34256245      0.08839085      1.18655512
S       2.12390956     -1.50102939      0.74006880
C       3.07531308     -0.95530703     -0.54469012
N       3.69137326     -0.53887012     -1.43282592
S      -0.32268866      2.22086169      0.77437189
C      -1.01767642      2.76274735     -0.66696260
N      -1.49131557      3.08877429     -1.67248058
H      -0.53556178     -1.32777832     -0.49953038
H      -1.63351080      0.01429034     -0.73418647
H       0.74165200      0.73596863     -0.77672310
H       0.92542208     -0.03807595      2.19178812
H       2.13950282      0.83749569      1.27633590
