31
CC(C)COc1ccc2ccccc2c1
C      -3.74648747     -1.16394892     -0.87500694
C      -3.48520822      0.31925359     -0.60289406
C      -4.66130305      0.93525345      0.15211522
C      -2.17920598      0.52330373      0.17976645
O      -1.08933795      0.04618418     -0.61032066
C       0.16251888      0.13091700     -0.06591827
C       0.48033538      0.66388520      1.18102784
C       1.81011721      0.68850751      1.61611183
C       2.84211867      0.18153910      0.81171975
C       4.18105794      0.19964762      1.23545994
C       5.19366629     -0.30929252      0.42060288
C       4.88093843     -0.84202775     -0.82657049
C       3.55492269     -0.86700839     -1.26161178
C       2.52458681     -0.35890828     -0.45353773
C       1.18449152     -0.37557697     -0.87446379
H      -4.67994820     -1.29686754     -1.43231320
H      -2.94087043     -1.60530444     -1.47067066
H      -3.82693803     -1.73023602      0.05911937
H      -3.39054117      0.81959795     -1.57517256
H      -5.59123134      0.81936418     -0.41454383
H      -4.50101976      2.00630936      0.31452014
H      -4.79881995      0.46084420      1.12976727
H      -2.04431469      1.59334796      0.38070827
H      -2.22765325     -0.02664569      1.12813244
H      -0.27807794      1.06998342      1.84138791
H       2.03439852      1.10961948      2.59372087
H       4.44498648      0.61188967      2.20665350
H       6.22577050     -0.28922279      0.76049233
H       5.66804676     -1.23870700     -1.46240248
H       3.32904903     -1.28711423     -2.23921659
H       0.92395231     -0.78858707     -1.84666295
