34
NS(=O)(=O)c1cc2cc(CNCc3ccccn3)sc2o1
N       5.91978694      2.50079183     -1.42108167
S       5.96253985      1.06780969     -0.54273307
O       6.19061053      1.40134969      0.84233221
O       6.76429512      0.12326857     -1.28270829
C       4.30376042      0.39868255     -0.58839683
C       3.80281707     -0.83003226     -0.13052758
C       2.45445883     -0.79288481     -0.43451059
C       1.39017654     -1.66762836     -0.25864676
C       0.23301897     -1.07316895     -0.77027654
C      -1.16147509     -1.62968945     -0.80993413
N      -1.62007033     -2.05567748      0.51675484
C      -1.94625515     -0.91249674      1.39112072
C      -3.22963894     -0.19295811      1.00940299
C      -3.39797513      1.15084320      1.33476336
C      -4.59461129      1.77761231      0.99855744
C      -5.59016420      1.04947543      0.35850139
C      -5.34922954     -0.28492024      0.08023732
N      -4.19948038     -0.92234388      0.39163920
S       0.55145993      0.51637541     -1.43744404
C       2.15742841      0.36620050     -1.02929652
O       3.25387365      1.13695385     -1.15165333
H       5.76605338      2.31899898     -2.41212182
H       5.25603348      3.16086305     -1.01733070
H       4.38590821     -1.60385955      0.34862109
H       1.40846603     -2.64783897      0.20137890
H      -1.86747031     -0.93402970     -1.27776993
H      -1.14083242     -2.51634369     -1.45617195
H      -2.51280306     -2.54084372      0.37953606
H      -2.08728353     -1.30136973      2.40660072
H      -1.10839544     -0.20817727      1.44293369
H      -2.61357246      1.70551808      1.83968936
H      -4.74975614      2.82607744      1.23722529
H      -6.53314352      1.50983938      0.08597993
H      -6.09853044     -0.89639705     -0.41439517
