22
CCSC(=S)N[C@@H](C)C(=O)O
C       3.98148222     -0.37085836     -0.40929714
C       2.60395173     -0.89484418     -0.04435057
S       1.41832876     -0.49425592     -1.36216361
C      -0.05660327     -1.03613075     -0.59006806
S      -0.48402004     -2.63460011     -0.41498089
N      -0.77413041      0.05775384     -0.20163527
C      -2.11493297      0.09820725      0.39745136
C      -2.04016709     -0.08443300      1.90820541
C      -2.79447321      1.43729894      0.09106871
O      -3.92624686      1.76428500      0.41111390
O      -2.00227033      2.30934734     -0.57553155
H       3.97866290      0.71761483     -0.53188317
H       4.35307121     -0.82544178     -1.33399352
H       4.69392705     -0.61167318      0.38676903
H       2.27246649     -0.43898428      0.89421822
H       2.64943112     -1.97911455      0.09572005
H      -0.39680140      0.95688247     -0.49042558
H      -2.72377695     -0.68683997     -0.06256526
H      -1.57745710     -1.03874589      2.17709859
H      -3.03919268     -0.05578224      2.35633267
H      -1.44714399      0.71252168      2.37171240
H      -2.57410521      3.09779285     -0.69710968
