62
CCNc1cc2[o+]c3cc(NCC)c(C)cc3c(-c3ccccc3C(=O)OC)c2cc1C.[Cl-]
C      -6.76506103     -2.50560436      1.52804233
C      -5.27634622     -2.26428285      1.33290047
N      -5.07639583     -1.10620146      0.46463540
C      -3.80424630     -0.63676406      0.14194038
C      -2.65684150     -1.41536757      0.30268941
C      -1.39605497     -0.96620463     -0.09736005
O      -0.32811951     -1.87154906      0.10101726
C       0.97528156     -1.40277783     -0.18399081
C       2.01827780     -2.27706737      0.13055892
C       3.35330144     -1.95463569     -0.11864892
N       4.39437479     -2.85078412      0.11858975
C       4.22744524     -4.01767674      0.98238218
C       5.54516364     -4.76943429      1.08663456
C       3.61202201     -0.73129214     -0.76903699
C       5.01701941     -0.32219096     -1.14426139
C       2.55504780      0.14973602     -1.07810596
C       1.20745358     -0.16490034     -0.78850236
C       0.10108214      0.68812808     -1.04942102
C       0.33178591      2.04995319     -1.59149342
C       0.32432495      2.22405264     -2.99031227
C       0.53399246      3.48007544     -3.55846456
C       0.75532973      4.58401971     -2.74286514
C       0.76770805      4.43802351     -1.35487884
C       0.55711490      3.18048504     -0.76136331
C       0.57238008      3.04172763      0.73423412
O       0.43805646      1.97933019      1.32389839
O       0.74757598      4.24729357      1.32629527
C       0.77199630      4.21275383      2.75573763
C      -1.21499647      0.28042256     -0.70136106
C      -2.37956607      1.05636174     -0.90240725
C      -3.65630706      0.60502563     -0.50839435
C      -4.84651771      1.49152282     -0.79158051
Cl      0.00000000      0.00000000      0.00000000
H      -7.24596767     -1.64094744      1.99798753
H      -6.92918561     -3.37785095      2.16810672
H      -7.26221001     -2.68480916      0.56864913
H      -4.80595484     -2.09234085      2.30756889
H      -4.83579487     -3.16050903      0.88256902
H      -5.74874874     -0.36302832      0.65016807
H      -2.69958445     -2.40668630      0.73971543
H       1.73578374     -3.22541542      0.57379054
H       5.29829580     -2.39853329      0.24943121
H       3.90824969     -3.70577651      1.98342923
H       3.47288004     -4.69517167      0.56728481
H       5.43023820     -5.65411430      1.72074459
H       5.88955942     -5.09606003      0.09954696
H       6.32615867     -4.13616725      1.52127668
H       5.48331148     -1.08875245     -1.77179915
H       5.61792193     -0.16741664     -0.24245367
H       5.02691595      0.61361236     -1.71380238
H       2.80478186      1.09538151     -1.56127652
H       0.15366143      1.37764951     -3.65499759
H       0.52497292      3.59933826     -4.64066554
H       0.91917798      5.56442943     -3.18729188
H       0.94563736      5.32547516     -0.74938847
H       0.91665221      5.23418149      3.11682972
H      -0.17919721      3.83800272      3.14442563
H       1.60519640      3.59770139      3.10858692
H      -2.31017457      2.03381719     -1.38197379
H      -5.60535140      0.94284304     -1.35845113
H      -5.27752822      1.85364725      0.14703389
H      -4.56597901      2.36532215     -1.38881256
