26
C=C(C)[C@H]1CC=C(C)CC1
C      -2.64544857     -1.61380633     -0.00166669
C      -2.16575204     -0.39836429     -0.31827196
C      -3.11637323      0.70944704     -0.69911426
C      -0.68160615     -0.03046686     -0.35437031
C      -0.31578299      0.91083630      0.81497643
C       1.16208927      1.14214687      0.96901375
C       2.10169573      0.40943615      0.34639190
C       3.56731992      0.69983193      0.49122639
C       1.74176621     -0.75615560     -0.54002394
C       0.29222737     -1.22350065     -0.37188575
H      -2.00315751     -2.44271903      0.27503024
H      -3.71242959     -1.81882777     -0.00276526
H      -4.15645343      0.36740089     -0.73287724
H      -2.86732812      1.09974755     -1.69127636
H      -3.06373081      1.52965318      0.02311729
H      -0.51694718      0.51494403     -1.29596437
H      -0.69913605      0.51183421      1.76278376
H      -0.79720138      1.88437055      0.66162230
H       1.45285777      1.96344789      1.62024391
H       4.01046791      0.90852011     -0.48786398
H       3.75391636      1.56678127      1.13365350
H       4.08347242     -0.15934957      0.93152466
H       1.91447943     -0.46687243     -1.58404714
H       2.40348847     -1.60429327     -0.32693686
H       0.04528969     -1.91365774     -1.18792102
H       0.21227652     -1.79038444      0.56540101
