56
CC(=O)OC1CCC2C3CCC4CC(=O)CCC4(C)C3CCC12C
C      -6.21557831     -0.51491712     -1.42426323
C      -5.23029855     -0.90790840     -0.36432510
O      -5.28161104     -1.95349364      0.26749664
O      -4.30791022      0.07715125     -0.20394551
C      -3.29691365     -0.15022223      0.77993319
C      -3.00679501      1.14798107      1.52948431
C      -1.54408999      1.04180588      1.97789305
C      -0.97914842     -0.25248402      1.34658596
C       0.52661002     -0.21751858      0.97622131
C       1.38615906      0.16841336      2.20046370
C       2.58503480      1.04599415      1.85947730
C       3.30589969      0.59076604      0.58910389
C       3.96424042     -0.78398124      0.80103673
C       4.77549167     -1.16333159     -0.41593482
O       5.84871339     -1.75670067     -0.31429513
C       4.20893542     -0.78593807     -1.76114241
C       2.71025893     -0.52463392     -1.64093215
C       2.36306262      0.64270375     -0.66780552
C       2.64118053      1.97872578     -1.41403919
C       0.82890021      0.65170491     -0.26816634
C      -0.10271324      0.27149747     -1.44262383
C      -1.57892669      0.34425279     -1.06318944
C      -1.92950551     -0.53367319      0.16082794
C      -1.91653732     -2.01850664     -0.23518315
H      -6.80327473     -1.38969317     -1.71628881
H      -5.68582350     -0.15240194     -2.31052256
H      -6.88500372      0.25923436     -1.03822524
H      -3.60877907     -0.89874024      1.51915891
H      -3.15576249      2.02907964      0.89374289
H      -3.68530668      1.26882997      2.38225174
H      -0.99698983      1.93595981      1.67183144
H      -1.49247639      0.98037655      3.07222783
H      -1.10850665     -1.05265775      2.09554763
H       0.80439203     -1.24810003      0.71331864
H       0.80460410      0.68651476      2.96935537
H       1.72912955     -0.75521614      2.68329522
H       2.24714325      2.08322490      1.72802623
H       3.27955051      1.05956927      2.70967623
H       4.13160587      1.30062869      0.42841019
H       3.23217130     -1.57757146      0.97876488
H       4.63978386     -0.74164403      1.66341598
H       4.74271329      0.09470452     -2.12297459
H       4.38186281     -1.61051360     -2.45712398
H       2.22848756     -1.44650206     -1.29406485
H       2.31534043     -0.31396545     -2.64239639
H       2.38273114      2.84350601     -0.79064970
H       3.69760021      2.08125278     -1.68654783
H       2.06075907      2.05152741     -2.34057923
H       0.57050192      1.68591040      0.00422168
H       0.11249943     -0.73974002     -1.80269232
H       0.06820021      0.94532527     -2.28846864
H      -1.82520022      1.39634929     -0.87707851
H      -2.18756928      0.04594951     -1.92675422
H      -2.23059496     -2.65251191      0.60199233
H      -2.59865822     -2.21244520     -1.06977192
H      -0.91958958     -2.35392728     -0.53591809
