59
CN(C)c1ccc(C(c2ccc(N(C)C)cc2)c2ccc(N(C)C)cc2)cc1
C      -3.40947658     -5.61658802     -0.46766432
N      -3.70766101     -4.29119089      0.07184809
C      -4.48690125     -4.27334234      1.30790895
C      -2.81152541     -3.24494547     -0.18289284
C      -2.81081557     -2.05650972      0.56674739
C      -1.92433268     -0.99903130      0.30568824
C      -1.00251940     -1.07592956     -0.74206282
C      -0.00090419      0.04072313     -1.05688756
C       1.42614893     -0.25045041     -0.57961937
C       1.70586420     -0.99214039      0.57155715
C       3.02988191     -1.21525692      0.98266651
C       4.13607560     -0.71782734      0.27291832
N       5.45364688     -0.93154674      0.69947769
C       6.54977870     -0.64268056     -0.22318120
C       5.71344681     -1.98892995      1.67493824
C       3.83142561      0.04898592     -0.86417450
C       2.51253285      0.27732640     -1.28650107
C      -0.50110962      1.44811285     -0.71355555
C      -0.09070689      2.14552588      0.42594070
C      -0.59327691      3.42590065      0.70893525
C      -1.52173647      4.07496293     -0.12261588
N      -2.02941447      5.34615846      0.17740926
C      -2.78003978      6.06796674     -0.84792969
C      -1.30429921      6.18197832      1.13298295
C      -1.94270446      3.34463053     -1.24632271
C      -1.44577452      2.06557203     -1.54150391
C      -0.99216430     -2.24792427     -1.50708727
C      -1.88120755     -3.29901792     -1.23430003
H      -3.42442089     -5.61171037     -1.56270872
H      -2.43737098     -5.97727724     -0.11352235
H      -4.16399016     -6.35002006     -0.16129599
H      -5.13056306     -3.38855629      1.35922819
H      -5.16048909     -5.13603079      1.36361773
H      -3.83326328     -4.30629257      2.18654783
H      -3.50596307     -1.91233554      1.38803460
H      -1.97765251     -0.11527080      0.93782049
H       0.07263073      0.03901428     -2.15736247
H       0.90200636     -1.40737753      1.17538618
H       3.16310979     -1.79371124      1.89154225
H       7.52151860     -0.85821500      0.23540937
H       6.47124049     -1.24998740     -1.13170845
H       6.57491164      0.41931045     -0.48989275
H       5.38917953     -2.96427958      1.29551381
H       6.78242917     -2.06324665      1.90487311
H       5.21701676     -1.78000101      2.62853703
H       4.61728104      0.50283285     -1.45963930
H       2.34528637      0.88706449     -2.17228138
H       0.62408688      1.70908279      1.12002812
H      -0.23185492      3.89739208      1.61756236
H      -2.16215654      6.25055571     -1.73408208
H      -3.12244070      7.04076115     -0.47710427
H      -3.68562467      5.52282699     -1.13501085
H      -1.78614480      7.15908150      1.25193689
H      -0.27564063      6.36037145      0.80051135
H      -1.29675766      5.72942495      2.13026388
H      -2.68111491      3.74849144     -1.93171036
H      -1.81941624      1.55067666     -2.42457747
H      -0.28650016     -2.35982997     -2.32794206
H      -1.82156432     -4.16727675     -1.88292510
