35
CC(=O)Nc1ccncc1NS(=O)(=O)c1ccc([N+](=O)[O-])cc1
C      -4.01651828      2.15126873     -0.62279047
C      -3.40537515      0.83401747     -1.03072843
O      -3.62534357      0.35188135     -2.13640077
N      -2.58894861      0.30531670     -0.05139075
C      -1.82274815     -0.88218502     -0.10139024
C      -1.85189283     -1.75294769     -1.19133807
C      -1.06661960     -2.89583131     -1.16096001
N      -0.26507648     -3.23046610     -0.12948886
C      -0.25881840     -2.38609885      0.92285920
C      -1.00625573     -1.21153691      0.99493425
N      -0.86647658     -0.37953390      2.15763375
S      -0.07940487      1.10779054      2.03562107
O      -0.94935887      2.00895051      1.31003769
O       0.37475938      1.42354897      3.37184002
C       1.35388904      0.76767112      1.04095406
C       2.51225278      0.27286917      1.65188157
C       3.64343001      0.00955286      0.87471891
C       3.60903567      0.25476273     -0.50687442
N       4.79825464     -0.02241424     -1.32431401
O       4.74029386      0.24112643     -2.53332419
O       5.78821850     -0.50194812     -0.75398240
C       2.45321292      0.76891367     -1.11318349
C       1.32417506      1.03315881     -0.33356167
H      -4.95469631      2.29881403     -1.16536995
H      -3.32360000      2.96118456     -0.86514851
H      -4.23900631      2.16656615      0.44807701
H      -2.44138199      0.88941486      0.77080952
H      -2.46525624     -1.57717565     -2.06686778
H      -1.06694941     -3.59199645     -1.99617550
H       0.39666278     -2.69124316      1.73342464
H      -0.63403646     -0.84691347      3.03532889
H       2.54590025      0.09557817      2.72548573
H       4.54008886     -0.37815087      1.35596863
H       2.41733978      0.96898726     -2.18307535
H       0.43025032      1.43706766     -0.80686746
