17
CCN(CC)N=O
C      -2.45125841     -0.12552752      0.31524183
C      -1.24309200      0.53406295     -0.34965494
N      -0.00906098     -0.26794181     -0.21154203
C       1.14478436      0.56306773     -0.62071418
C       2.49202886     -0.05588568     -0.24915915
N      -0.07811166     -1.39817252     -0.88465605
O       0.27408940     -2.33834439     -0.16471468
H      -3.31611885      0.54420063      0.26460301
H      -2.72808423     -1.06213561     -0.17929480
H      -2.25213315     -0.33687865      1.37127664
H      -1.10673769      1.50352925      0.14721027
H      -1.46942376      0.74535600     -1.40383977
H       1.12121477      0.77753166     -1.69803011
H       1.09690838      1.53031975     -0.10341934
H       3.30053020      0.64538721     -0.48086980
H       2.53988459     -0.28072745      0.82160554
H       2.68458018     -0.97784155     -0.80692156
