36
O=C(O)CN(CCN(CC(=O)O)CC(=O)O)CC(=O)O
O      -1.03742739      3.99498316      1.91865774
C      -1.02523796      3.04350809      1.15197808
O      -0.36918740      3.12634675     -0.02531156
C      -1.76218899      1.72929804      1.37993829
N      -1.00557656      0.54705806      0.90751608
C       0.18643411      0.27158596      1.73266415
C       1.20420389     -0.68633361      1.03596270
N       1.30856314     -0.47230209     -0.42722787
C       2.03615684      0.78610754     -0.72568822
C       1.64428919      1.30963050     -2.10375319
O       2.39327824      1.95935828     -2.82105293
O       0.36865171      1.01776803     -2.44664478
C       1.97611144     -1.61514347     -1.10351961
C       1.07184271     -2.84164707     -1.19781568
O      -0.11056842     -2.93685817     -0.91301086
O       1.73802489     -3.91778186     -1.67263692
C      -1.89886162     -0.63287724      0.82593658
C      -2.63852040     -0.65273376     -0.50521228
O      -2.40081089      0.01401255     -1.50322956
O      -3.65808291     -1.53974250     -0.51008399
H      -0.03265818      4.04389179     -0.06786131
H      -1.98441986      1.63554683      2.45074246
H      -2.71255569      1.82371806      0.83928570
H      -0.09782463     -0.13807023      2.71121589
H       0.72030723      1.20812002      1.93554538
H       2.18763179     -0.59113168      1.51592107
H       0.86724425     -1.70969789      1.23843246
H       3.12084042      0.63361359     -0.68332594
H       1.77944549      1.58464814     -0.02312053
H      -0.08191472      0.54480048     -1.70235271
H       2.22387691     -1.34968192     -2.13928679
H       2.89974347     -1.88838949     -0.57953977
H       1.05290328     -4.61704677     -1.71765049
H      -2.62172615     -0.63644886      1.65099110
H      -1.34118496     -1.57143909      0.87275193
H      -4.00080228     -1.47667019     -1.42883309
