17
O=C1CCCCC1
O       1.01946051      2.48890091     -0.41106408
C       0.57933001      1.40454025     -0.03211931
C       1.49296285      0.23306955      0.25082775
C       0.92145401     -1.04854881     -0.33982504
C      -0.52506707     -1.27613410      0.09367825
C      -1.40369416     -0.08842469     -0.29297938
C      -0.88409287      1.21462770      0.29871955
H       1.60677693      0.14603739      1.33678515
H       2.47899880      0.43436131     -0.18068548
H       1.53778080     -1.90162801     -0.03493473
H       0.96383873     -0.99644772     -1.43506536
H      -0.56727642     -1.43128686      1.17857843
H      -0.91069998     -2.18702063     -0.37786056
H      -1.43464799     -0.00603961     -1.38674208
H      -2.43128581     -0.26268024      0.04503138
H      -1.45514460      2.05888813     -0.10142198
H      -0.98869373      1.21778541      1.38907749
