22
CNC(=S)NC1C(=O)NC(=O)NC1=O
C       3.57676874     -0.24263058     -0.51874159
N       2.19721672     -0.07268340     -0.10354347
C       1.79328225      0.14080709      1.18387348
S       2.76707728      0.18653104      2.53562945
N       0.44938445      0.30345437      1.35681222
C      -0.59539975     -0.28807065      0.50896655
C      -1.86274581     -0.43386176      1.34051697
O      -1.85952835     -0.49440460      2.56946831
N      -3.03252144     -0.52796523      0.64097259
C      -3.23758575      0.08557742     -0.55449794
O      -4.36512481      0.36952732     -0.94260365
N      -2.13285382      0.43978843     -1.26530015
C      -0.85329347      0.48635426     -0.77946458
O       0.02442877      1.07390645     -1.41291123
H       4.11489702      0.69792136     -0.37299709
H       3.58355327     -0.50941793     -1.57838516
H       4.05002650     -1.03860758      0.06184467
H       1.62150693      0.40997607     -0.79159155
H       0.20570671      0.35667114      2.34542832
H      -0.27170451     -1.29787937      0.22734312
H      -3.86595698     -0.61887335      1.20839078
H      -2.30713397      0.97387948     -2.10667280
