18
Clc1cccc2c(Cl)cccc12
Cl     -1.08656246     -3.20077470      0.38868193
C      -1.12373569     -1.48535699      0.12790392
C      -2.38404022     -0.91424273     -0.06460024
C      -2.49886291      0.45069572     -0.27930282
C      -1.35259055      1.24407938     -0.30138754
C      -0.05856271      0.69964380     -0.11003097
C       1.12373549      1.48535874     -0.12790474
Cl      1.08657383      3.20077702     -0.38867353
C       2.38403688      0.91424010      0.06459231
C       2.49886057     -0.45069578      0.27930912
C       1.35259063     -1.24408077      0.30138774
C       0.05856393     -0.69964205      0.11003456
H      -3.27855662     -1.53187566     -0.04759820
H      -3.47667333      0.90149723     -0.42980895
H      -1.48461750      2.31135191     -0.47286492
H       3.27854936      1.53187581      0.04758675
H       3.47666986     -0.90149560      0.42982226
H       1.48462144     -2.31135545      0.47285330
