28
Cc1cc(NS(=O)(=O)c2ccc(N)cc2)sn1
C       5.45878111      0.85356491      0.97631840
C       4.31355644     -0.09473429      1.02006287
C       2.94071447      0.24048270      0.77759413
C       2.15751203     -0.88267133      0.87907041
N       0.69825254     -0.92621386      0.72632843
S       0.22668199     -0.84643930     -0.91008739
O       0.93786079      0.21417609     -1.58925469
O       0.21866358     -2.20931515     -1.39694235
C      -1.45784712     -0.31308354     -0.73222671
C      -1.71590881      0.99515939     -0.31775551
C      -3.03860727      1.42057969     -0.17286330
C      -4.10262884      0.56758241     -0.48439547
N      -5.41876610      0.96054550     -0.21951437
C      -3.82453772     -0.75342975     -0.85212193
C      -2.50647455     -1.19343104     -1.00122318
S       3.12901525     -2.21559199      1.28537733
N       4.55988788     -1.37445579      1.31352548
H       5.95068541      0.90559160      1.95304206
H       6.19486463      0.53224906      0.23223677
H       5.12753518      1.86243841      0.71007240
H       2.57287066      1.22795463      0.53408849
H       0.35128693     -1.81736811      1.08936008
H      -0.89994235      1.67920953     -0.09651432
H      -3.23349303      2.42930213      0.18296817
H      -6.11797908      0.44374668     -0.74416145
H      -5.56829082      1.96376512     -0.26872760
H      -4.63800806     -1.45261719     -1.03063676
H      -2.31568512     -2.21699651     -1.31507063
