28
CCCOC(=O)COc1ccc(Cl)cc1Cl
C       5.11134631      0.59643460      0.12623456
C       3.80344841      0.21681152      0.79721504
C       2.87215512     -0.52132203     -0.15795216
O       1.67047308     -0.90868503      0.52781323
C       0.67497658      0.02716832      0.55917378
O       0.74335058      1.13934009      0.05364471
C      -0.52197876     -0.53854724      1.31455070
O      -1.59355217      0.39566737      1.45880250
C      -2.55927470      0.20925211      0.50547342
C      -2.53233357      1.03759365     -0.61761552
C      -3.51780632      0.90988434     -1.59733588
C      -4.53407583     -0.03266102     -1.43919797
Cl     -5.74712132     -0.18708161     -2.64981141
C      -4.58130035     -0.84584708     -0.30763114
C      -3.59568396     -0.71805127      0.67176271
Cl     -3.69170128     -1.71913474      2.07452274
H       5.64302323     -0.29238125     -0.22817851
H       5.76164893      1.12187643      0.83254370
H       4.93574673      1.25625287     -0.72940113
H       3.31129659      1.11822822      1.18009779
H       4.00281337     -0.41208706      1.67308507
H       3.34761784     -1.44443211     -0.50716468
H       2.64288588      0.07586215     -1.04864174
H      -0.18449755     -0.78462487      2.32730702
H      -0.83880803     -1.46686693      0.82207609
H      -1.74780088      1.78328791     -0.72882941
H      -3.49063366      1.55179403     -2.47447291
H      -5.38421427     -1.56773139     -0.18687881
