32
O=C(OCCOc1ccc(Cl)cc1Cl)c1ccccc1
O      -1.78824607      0.93823213     -2.07751727
C      -1.88613541      0.00647720     -1.29410042
O      -1.08970956     -1.08971387     -1.27000355
C      -0.03537511     -1.11347816     -2.25016169
C       1.14347719     -0.24112664     -1.81673325
O       1.73952950     -0.83710179     -0.66043678
C       2.76167568     -0.16559430     -0.04451664
C       3.35079931      1.00449313     -0.53517692
C       4.39618135      1.61657269      0.16513870
C       4.85814626      1.06110637      1.35609271
Cl      6.14417529      1.82070757      2.20924464
C       4.28737305     -0.10313623      1.85808457
C       3.24361833     -0.71299049      1.15804575
Cl      2.56309328     -2.15890645      1.82263484
C      -2.91657583     -0.06992361     -0.22403025
C      -3.90652172      0.92172530     -0.18594883
C      -4.89252642      0.89454235      0.80235415
C      -4.89342365     -0.12058112      1.75813028
C      -3.90979502     -1.10881705      1.72937541
C      -2.92182512     -1.08569914      0.74194410
H      -0.42112620     -0.80298848     -3.22804307
H       0.28250729     -2.15813979     -2.33487507
H       1.87744979     -0.20919455     -2.62976698
H       0.79823784      0.76972339     -1.57488003
H       3.02361970      1.46751927     -1.46087082
H       4.84474559      2.52669112     -0.22642110
H       4.64968147     -0.53467484      2.78684690
H      -3.91347244      1.71922859     -0.92653218
H      -5.65845674      1.66582581      0.82661809
H      -5.66080818     -0.14072188      2.52834196
H      -3.90981016     -1.89772262      2.47781170
H      -2.16050327     -1.86233388      0.74189239
