22
Clc1ccc(-c2cc(Cl)c(Cl)c(Cl)c2Cl)cc1Cl
Cl      5.24460292      0.39284935      0.47914156
C       3.53490369      0.23006143      0.29781144
C       2.71625523      1.02647980      1.10203142
C       1.32517226      0.93819090      0.99638132
C       0.73141073      0.05021316      0.08710099
C      -0.73160934     -0.04073493     -0.02738960
C      -1.37610670      0.74249599     -0.99797936
C      -2.76405105      0.70158779     -1.15515014
Cl     -3.44300957      1.71321917     -2.38371294
C      -3.54529718     -0.12892187     -0.34074507
Cl     -5.27133655     -0.16775533     -0.54772382
C      -2.91978688     -0.92343487      0.63799086
Cl     -3.87565825     -1.96178730      1.65932151
C      -1.51794445     -0.87888070      0.79274211
Cl     -0.72935129     -1.86104237      1.99658481
C       1.56300586     -0.74368645     -0.71865817
C       2.95667344     -0.65710966     -0.61499192
Cl      3.90130237     -1.67171218     -1.64646507
H       3.15528554      1.71876972      1.81716410
H       0.70717747      1.56615201      1.63665813
H      -0.78451341      1.39581732     -1.64021797
H       1.12287517     -1.44077095     -1.42989418
