20
COc1cc([N+](=O)[O-])ccc1N
C      -2.57843127     -1.30855684     -0.26698732
O      -2.06737747     -0.02098250      0.05564155
C      -0.70061822      0.13003303      0.05212392
C       0.21937258     -0.91727137     -0.04198831
C       1.59259847     -0.63053449     -0.03582709
N       2.56192430     -1.72903027     -0.13845906
O       2.11808713     -2.88123384     -0.24696755
O       3.76671833     -1.44075774     -0.10840907
C       2.05195657      0.68831659      0.05586232
C       1.12766542      1.72888229      0.15414113
C      -0.24479522      1.45957128      0.19473200
N      -1.15726124      2.53068123      0.16529314
H      -3.66871996     -1.23146387     -0.31909963
H      -2.22105011     -1.64525206     -1.24586694
H      -2.33353390     -2.03367618      0.51574841
H      -0.11298196     -1.94724782     -0.12024577
H       3.11413018      0.92319336      0.03934130
H       1.48306777      2.75589808      0.19132625
H      -0.85678273      3.35075394      0.67996637
H      -2.09396867      2.21867718      0.41967434
