47
CC1(C)SC2C(NC(=O)C(N)c3ccc(N)cc3)C(=O)N2C1c1nnn[nH]1
C      -2.33186960     -1.39807319      1.45257045
C      -2.48910349     -1.53908841     -0.06741294
C      -2.67098174     -3.01999335     -0.42433011
S      -0.91192593     -0.94671423     -0.85747420
C      -1.63934726      0.63625059     -1.49062763
C      -1.36150729      1.91358032     -0.65560840
N      -0.18765470      1.89198153      0.24201691
C       1.10157417      1.97454893     -0.25329577
O       1.32643081      2.26142785     -1.42517992
C       2.18099993      1.69873583      0.82768813
N       1.59337853      0.85684599      1.90906369
C       3.45072291      1.05472962      0.30817647
C       3.42612267      0.00209286     -0.61771012
C       4.61441887     -0.59761611     -1.04854125
C       5.84667687     -0.20543267     -0.52285101
N       7.03525001     -0.72750905     -1.04283260
C       5.87885685      0.87145270      0.36391643
C       4.69586638      1.48256352      0.79323630
C      -2.72573308      1.58678936     -0.00936174
O      -3.32702488      1.89020277      0.99658773
N      -3.02879031      0.66057108     -0.97040101
C      -3.59097113     -0.66112929     -0.70431247
C      -4.90799393     -0.67899380     -0.01107147
N      -5.84828429     -1.59566488     -0.14296931
N      -6.86627074     -1.23083300      0.70165699
N      -6.56775184     -0.11470749      1.34877214
N      -5.35418529      0.23446615      0.90395839
H      -1.49708218     -2.00399800      1.82529466
H      -3.22956148     -1.74653633      1.97501254
H      -2.14817224     -0.36733193      1.76854885
H      -1.84191346     -3.63100571     -0.04824637
H      -2.73697042     -3.17537449     -1.50673750
H      -3.59079510     -3.41727290      0.01912684
H      -1.58988576      0.75967459     -2.57608453
H      -1.40114155      2.84535443     -1.23431487
H      -0.23896690      1.52734758      1.19427642
H       2.41381607      2.68097338      1.25839384
H       1.49785927     -0.09062591      1.53295379
H       2.30456641      0.76666448      2.63756969
H       2.48596335     -0.34827046     -1.03842704
H       4.56588787     -1.37769421     -1.80418309
H       6.94046347     -1.66156052     -1.42867204
H       7.83090310     -0.64506827     -0.41844217
H       6.83006446      1.25140550      0.72658485
H       4.75973368      2.30821411      1.49906729
H      -3.79412723     -1.05062011     -1.71426198
H      -4.90154387      1.07524113      1.25634097
