49
CN1CCN(CCCN2c3ccccc3Sc3ccc(Cl)cc32)CC1
C      -5.80405252      1.24944416      1.35468250
N      -4.83986860      0.96683960      0.29447262
C      -3.56848446      1.67132955      0.54111362
C      -2.50208395      1.34248044     -0.53031360
N      -2.23204657     -0.10985192     -0.62980712
C      -1.27422273     -0.41758051     -1.70169734
C       0.16889111     -0.02159034     -1.36803042
C       0.68633574     -0.72873456     -0.10576358
N       2.13873029     -0.49001685      0.09379428
C       2.50920733      0.61383295      0.91738020
C       1.59457214      1.63226123      1.27148762
C       1.95094648      2.72741753      2.06851606
C       3.24589379      2.84596840      2.54146955
C       4.17644245      1.86811780      2.21213192
C       3.82193287      0.76530158      1.40842341
S       5.12546644     -0.40361210      1.10891726
C       4.40363525     -1.47374551     -0.11044525
C       5.28869007     -2.40742318     -0.68793319
C       4.84945173     -3.31658458     -1.64307827
C       3.51957078     -3.29236413     -2.02388700
Cl      2.95212999     -4.40131714     -3.21255636
C       2.63331266     -2.37176243     -1.45488944
C       3.04131204     -1.43634096     -0.47615524
C      -3.51505887     -0.80811650     -0.87569212
C      -4.58098043     -0.48155063      0.19510230
H      -6.01650514      2.32315184      1.40324583
H      -5.44876182      0.92392070      2.33908761
H      -6.75677914      0.74878482      1.14975183
H      -3.16935824      1.41539794      1.53217523
H      -3.74304649      2.75403992      0.52891252
H      -2.83483834      1.73917267     -1.49909068
H      -1.58637923      1.87672316     -0.25696394
H      -1.57515257      0.05865503     -2.64384733
H      -1.27522949     -1.49967211     -1.88934360
H       0.25574053      1.06527496     -1.26903589
H       0.79665665     -0.27915437     -2.22929351
H       0.11248767     -0.42256825      0.77766805
H       0.47325646     -1.80448024     -0.15413135
H       0.56667595      1.61694644      0.92645408
H       1.20984421      3.48448220      2.31171058
H       3.53320360      3.69070336      3.16085858
H       5.19253977      1.96688979      2.58953249
H       6.33546704     -2.42828740     -0.38929719
H       5.54427926     -4.02819093     -2.07900416
H       1.61174033     -2.40018015     -1.81711456
H      -3.34662294     -1.89191096     -0.86441908
H      -3.90973085     -0.54811535     -1.86747186
H      -5.50851429     -1.00065770     -0.07508147
H      -4.25069595     -0.88332724      1.16275499
