23
CC(=NO)C(=NO)c1ccccc1
C      -2.67812888      0.25419693      0.39334224
C      -1.56958268     -0.73040919      0.14901319
N      -1.62775256     -1.75915899     -0.64541739
O      -2.88225354     -1.84776936     -1.26070914
C      -0.26708559     -0.46989648      0.87396578
N      -0.13075821     -0.76040652      2.13877161
O      -1.29527820     -1.32361804      2.67367669
C       0.85570136      0.15588247      0.11534230
C       2.05210019      0.45219025      0.78475293
C       3.11558725      1.04974114      0.10443913
C       2.99296474      1.35571038     -1.24907966
C       1.80902235      1.06385339     -1.92398887
C       0.74216789      0.46637291     -1.24640579
H      -2.94463491      0.74432166     -0.54712489
H      -2.36759919      1.01914728      1.11008602
H      -3.55191570     -0.26788583      0.79260562
H      -2.81766125     -2.69242369     -1.74501093
H      -1.01695456     -1.56540565      3.57697836
H       2.16679479      0.22000036      1.84146509
H       4.03911091      1.27407954      0.63238242
H       3.82165384      1.81872970     -1.77917280
H       1.71611467      1.29780701     -2.98192686
H      -0.16161274      0.24494072     -1.80798503
