29
C=C(C)C1CCC(C)CC1O
C      -2.82389532     -0.98728442     -0.87273976
C      -2.29492224     -0.43296240      0.23248993
C      -3.19435216      0.04226368      1.34590538
C      -0.79318079     -0.24613880      0.47619090
C       0.05087835     -1.42475887     -0.05103163
C       1.54008555     -1.22784869      0.22288115
C       2.04642235      0.07833346     -0.39656091
C       3.53351156      0.27212944     -0.10604277
C       1.23402916      1.26571646      0.12433384
C      -0.27270968      1.09418505     -0.09809171
O      -0.92432477      2.19489393      0.54107404
H      -3.89846113     -1.09840087     -0.98824093
H      -2.21620121     -1.33404111     -1.70068437
H      -3.07572103      1.11631944      1.51333311
H      -4.25203771     -0.14081709      1.12754148
H      -2.95569803     -0.48424475      2.27585260
H      -0.65215415     -0.22097931      1.56701283
H      -0.28008816     -2.35977418      0.41765129
H      -0.08101005     -1.54550197     -1.13304137
H       1.71557117     -1.22712585      1.30616553
H       2.09745552     -2.07756424     -0.18925150
H       1.91998186      0.02137339     -1.48586054
H       3.72491740      0.33550372      0.97055725
H       3.90298611      1.19247235     -0.57045189
H       4.11887961     -0.56282291     -0.50531294
H       1.42630153      1.41377183      1.19603397
H       1.56705971      2.19243056     -0.36073634
H      -0.49693131      1.14998109     -1.17084269
H      -0.66639213      3.00089109      0.06268003
