23
CC(=O)Oc1ccc(C(C)=O)cc1
C       4.58534844     -0.13386701      0.05976754
C       3.12293090     -0.38877293      0.27423196
O       2.67499809     -1.29054977      0.96892683
O       2.39590946      0.55941826     -0.43891536
C       1.00396185      0.45382732     -0.33858823
C       0.31114308      1.54837398      0.17121045
C      -1.08224031      1.50176211      0.24361084
C      -1.78066690      0.36883430     -0.20303068
C      -3.27080458      0.36813558     -0.10040240
C      -4.02844900     -0.87619876     -0.48323114
O      -3.85871264      1.37567466      0.28802607
C      -1.06845561     -0.71544934     -0.73493026
C       0.32668831     -0.66949882     -0.81129197
H       5.16714312     -0.87460758      0.61579968
H       4.82612812     -0.22789785     -1.00207536
H       4.84601589      0.86147977      0.42808365
H       0.84471112      2.43031365      0.51329348
H      -1.62365881      2.35433468      0.65055883
H      -3.91978033     -1.06973543     -1.55340518
H      -5.09155928     -0.72973517     -0.26773382
H      -3.68236458     -1.72952685      0.10578814
H      -1.57266234     -1.60567495     -1.09887785
H       0.87437598     -1.51063985     -1.22723129
