9
NC(=O)C(Cl)(Cl)Cl
N       1.38381796      0.39337603     -0.02648539
C       0.32899452     -0.35199763      0.45567046
O       0.56526850     -1.14695201      1.36717858
C      -1.08055409     -0.07863272     -0.13432497
Cl     -1.75512926      1.34197627      0.70368261
Cl     -0.93819030      0.27063182     -1.88492506
Cl     -2.13209064     -1.49365621      0.09535727
H       1.32215075      0.90336826     -0.90040480
H       2.30573256      0.16188620      0.32425130
