25
CCCNC(=O)n1cc(F)c(=O)[nH]c1=O
C       4.33996988     -0.00462351     -0.11929625
C       2.84915654     -0.11474360     -0.39221374
C       2.06211893     -0.35478381      0.89281279
N       0.64498608     -0.49224690      0.63074154
C      -0.19021217      0.58762858      0.48153386
O       0.22209667      1.73780302      0.64433413
N      -1.52966908      0.29429481      0.14896771
C      -2.41529867      1.36920838      0.07460500
C      -3.70247787      1.22823019     -0.23543928
F      -4.54624606      2.27350174     -0.30486410
C      -4.24704926     -0.10782814     -0.51814103
O      -5.41656564     -0.30416630     -0.82117746
N      -3.33316602     -1.12235268     -0.41894542
C      -1.99346436     -1.00132574     -0.12410590
O      -1.29641386     -2.01747898     -0.12989939
H       4.72427518     -0.92281567      0.33628971
H       4.55433402      0.83014483      0.55564544
H       4.88494059      0.16499590     -1.05317106
H       2.50205095      0.80272534     -0.88193307
H       2.66804653     -0.93507908     -1.09715191
H       2.21697365      0.47038746      1.59680550
H       2.38884286     -1.28155957      1.37606029
H       0.29866299     -1.40609170      0.34383325
H      -2.01771092      2.35894249      0.28381094
H      -3.66818097     -2.05276704     -0.62176522
