28
O=[N+](O)OCCCCCCO[N+](=O)O
O      -5.21186114      0.71192943      0.37962001
N      -4.76026495      0.20024538     -0.86097457
O      -5.68293786      0.17054858     -1.92229337
O      -3.43171293     -0.27102612     -1.05998897
C      -2.68529186     -0.15932216      0.14639098
C      -1.27405651     -0.67677060     -0.11904117
C      -0.39780681     -0.58600468      1.12904528
C       0.99135178     -1.20396706      0.94409246
C       1.85776185     -0.57891550     -0.15076245
C       2.14237613      0.90574862      0.06577670
O       3.00792490      1.39866400     -0.95202292
N       4.37605782      1.16582882     -0.62896682
O       4.78841969      0.50540505      0.55343035
O       5.38534153      1.59736292     -1.50918560
H      -6.44154319      0.54834212     -1.44827242
H      -2.64303535      0.89041490      0.45955660
H      -3.16032757     -0.75856790      0.93186975
H      -1.32890264     -1.71467002     -0.47029433
H      -0.83612861     -0.10123034     -0.94291283
H      -0.89464014     -1.11242392      1.95384023
H      -0.30576293      0.45965026      1.44432915
H       1.52829476     -1.14006448      1.89880307
H       0.87711410     -2.27342517      0.72723612
H       1.39927215     -0.72256933     -1.13635240
H       2.80495142     -1.12986462     -0.19902566
H       1.21118430      1.47444547     -0.02612264
H       2.53534524      1.11567892      1.06715873
H       6.14887680      1.28455744     -0.99724742
