48
O=C(NCC1CCCCN1)c1cc(OCC(F)(F)F)ccc1OCC(F)(F)F
O       0.31508908      1.29186422      1.38506872
C      -0.19268907      0.27786682      0.91706083
N       0.43040826     -0.94638044      0.93316889
C       1.77732897     -1.14340400      1.43586410
C       2.84714080     -1.14930892      0.31714995
C       3.00124516      0.23480120     -0.33765506
C       4.10928217      0.23904626     -1.38882312
C       5.40546462     -0.31974865     -0.81491959
C       5.17136954     -1.67519469     -0.15489193
N       4.13636496     -1.60343692      0.87864134
C      -1.56467492      0.34196915      0.32014063
C      -2.36786519      1.42100159      0.74393166
C      -3.66350809      1.57687675      0.26085294
O      -4.53875169      2.56917104      0.60045843
C      -4.08215176      3.55560026      1.53616230
C      -5.17897016      4.57253200      1.81271666
F      -5.54675898      5.23332674      0.69279984
F      -6.28077511      3.99144176      2.33631145
F      -4.74968298      5.49723912      2.70363247
C      -4.15797145      0.65127977     -0.65596731
C      -3.37046148     -0.41827931     -1.09527981
C      -2.06469582     -0.58238912     -0.62014205
O      -1.23529840     -1.59752540     -1.01997298
C      -1.66084157     -2.43514176     -2.10583383
C      -0.55422646     -3.40955701     -2.48145440
F      -0.18464419     -4.16410309     -1.42234426
F      -0.97383031     -4.25040293     -3.45675535
F       0.54218278     -2.76563314     -2.93973168
H      -0.02269148     -1.72645194      0.47051786
H       2.00575727     -0.37845952      2.18764123
H       1.76666395     -2.11528363      1.94391801
H       2.52767231     -1.87039420     -0.44833889
H       2.06474712      0.53636058     -0.81950773
H       3.22659149      0.98907605      0.42791197
H       4.27104535      1.25754004     -1.75805836
H       3.79803889     -0.36865713     -2.24736757
H       5.81319014      0.38430287     -0.07874289
H       6.15188175     -0.41778801     -1.61114705
H       6.10400641     -2.02097508      0.30375371
H       4.89565282     -2.42483141     -0.90649613
H       4.43361311     -0.93872051      1.59513293
H      -1.94729390      2.12007509      1.46208337
H      -3.81087659      3.07239242      2.48224782
H      -3.21221889      4.08159204      1.12522923
H      -5.17165482      0.76297598     -1.03707487
H      -3.81936210     -1.10203377     -1.80894164
H      -1.90058037     -1.82376264     -2.98365947
H      -2.54226116     -3.01046851     -1.79893935
