25
O=C(Nc1ccccc1)c1cccnc1
O       0.38845876     -1.75315935     -1.18725818
C       0.64889772     -0.70511765     -0.60961638
N      -0.25455612      0.19472658     -0.07249392
C      -1.65809645      0.05968865     -0.00473393
C      -2.35337721     -1.08341877     -0.40230876
C      -3.74715243     -1.13876391     -0.29590405
C      -4.45695483     -0.05312927      0.21094961
C      -3.77356968      1.09041990      0.61394244
C      -2.38114581      1.14563699      0.50768862
C       2.07458563     -0.31346836     -0.48931267
C       2.58224331      0.40893762      0.59420281
C       3.93882229      0.72965424      0.62450658
C       4.74053477      0.31166033     -0.42666542
N       4.28394667     -0.39839926     -1.48045218
C       2.96224523     -0.70612494     -1.48351593
H       0.10893141      1.08190504      0.24824594
H      -1.84129419     -1.95495830     -0.79768474
H      -4.27471426     -2.03562945     -0.61112339
H      -5.53975698     -0.10039648      0.29116748
H      -4.32346623      1.93995786      1.01033425
H      -1.87433107      2.05143434      0.82900006
H       1.95116884      0.69786642      1.42896918
H       4.36542588      1.28323204      1.45419983
H       5.80349195      0.53684261     -0.44605273
H       2.62966281     -1.28939690     -2.33922330
