17
CCC(Cl)CC
C      -2.56639072      0.02408335      0.20626245
C      -1.19724845      0.67755857      0.06641575
C      -0.03488180     -0.32649394      0.05369502
Cl     -0.14153890     -1.38541752     -1.38878293
C       1.31450588      0.40690402      0.07938339
C       2.51150803     -0.52308725      0.23248364
H      -2.81492142     -0.58968233     -0.66432592
H      -2.60956025     -0.60758960      1.09919213
H      -3.33997636      0.79326040      0.29945145
H      -1.06599079      1.36530492      0.91117238
H      -1.18093442      1.29141123     -0.84266702
H      -0.11000642     -0.98174325      0.92882001
H       1.32415626      1.10775612      0.92351059
H       1.43861789      1.00913835     -0.82914471
H       2.63245788     -1.17666720     -0.63619635
H       2.41000099     -1.14847358      1.12511221
H       3.43020262      0.06373770      0.33441271
