21
C#CC(C)(CC)OC(N)=O
C      -0.56013494      2.77592250      1.24339913
C      -0.35782159      1.80128261      0.57023025
C      -0.10143516      0.59470103     -0.26258086
C       0.20102577      1.08150663     -1.69077080
C      -1.35869023     -0.30888324     -0.24087000
C      -1.64953056     -0.94953845      1.11388898
O       1.05562833     -0.04840987      0.31640730
C       1.54965709     -1.17013363     -0.23905109
N       2.62934952     -1.58380506      0.46049070
O       1.12511260     -1.76164272     -1.21633873
H      -0.73727171      3.63933454      1.84228130
H       0.33031707      0.25027675     -2.39042241
H      -0.60565430      1.71393163     -2.07970289
H       1.13133890      1.66172407     -1.71671917
H      -1.25417419     -1.11899823     -0.97164584
H      -2.23898264      0.26885031     -0.55263830
H      -2.54735527     -1.57257112      1.04505332
H      -0.82547599     -1.59056441      1.44055771
H      -1.82787932     -0.19541317      1.88610685
H       2.93309875     -1.06453074      1.26930742
H       3.10887788     -2.42303942      0.17301712
