33
CCCCCC(=O)OCn1c(=O)[nH]cc(F)c1=O
C       6.08051277      0.71775099     -0.30193287
C       4.95678030     -0.25719747      0.01143849
C       3.58493202      0.38696139     -0.18671642
C       2.45768718     -0.59662118      0.12939999
C       1.08643170      0.04673395     -0.06848223
C      -0.03748841     -0.91403097      0.24001948
O       0.09533579     -2.07191266      0.60834132
O      -1.23159092     -0.29142605      0.04578497
C      -2.35090085     -1.13911692      0.31111529
N      -3.55219632     -0.37287098      0.06891968
C      -4.08322838      0.35097153      1.12453929
O      -3.62212355      0.36903102      2.26295545
N      -5.20824759      1.08684388      0.83969352
C      -5.79180689      1.14632884     -0.39267449
C      -5.27723152      0.46861068     -1.41534465
F      -5.82038558      0.50345442     -2.64600859
C      -4.06336128     -0.35851648     -1.22310703
O      -3.57703225     -0.97476108     -2.16850890
H       6.02545907      1.05916438     -1.34055793
H       7.05224687      0.23644494     -0.15364760
H       6.03257247      1.59479685      0.35138792
H       5.05254635     -1.13641063     -0.63626596
H       5.05962389     -0.60373536      1.04635035
H       3.49591686      1.26814780      0.46032017
H       3.48884518      0.73548513     -1.22226841
H       2.54690407     -1.48066940     -0.51434733
H       2.55399404     -0.94938224      1.16390227
H       0.98547324      0.91405366      0.59350002
H       0.97860669      0.37570076     -1.10811066
H      -2.32444667     -1.47665025      1.35394739
H      -2.32384367     -2.01143731     -0.35265431
H      -5.59304690      1.61100140      1.61886754
H      -6.67693772      1.76325739     -0.49790941
