25
O=S(=O)([O-])c1ccc(Nc2nc(Cl)nc(Cl)n2)cc1.[Na+]
O      -4.85383628      0.28063890     -1.15439678
S      -4.58058978      0.68880016      0.22111429
O      -5.13729775     -0.18874004      1.24804604
O      -4.68491305      2.11972968      0.48899037
C      -2.79743740      0.41371433      0.38535081
C      -2.26032545      0.14823731      1.64305261
C      -0.88854058     -0.08811016      1.76579961
C      -0.03654828     -0.07038598      0.64401908
N       1.32857967     -0.31723747      0.84901766
C       2.43847985     -0.37889224      0.01351351
N       3.58698754     -0.64269900      0.62646285
C       4.64481389     -0.70113380     -0.17294773
Cl      6.13702439     -1.03926885      0.58938916
N       4.68875296     -0.53126096     -1.47868255
C       3.48786406     -0.27694661     -1.96016993
Cl      3.39492743     -0.03342827     -3.64860146
N       2.34616996     -0.18728453     -1.29398007
C      -0.60712629      0.18927142     -0.60919578
C      -1.98063390      0.42736972     -0.74419101
Na      0.00000000      0.00000000      0.00000000
H      -2.91216808      0.12835740      2.51274595
H      -0.49364942     -0.28984676      2.75772525
H       1.60184446     -0.48654090      1.80630060
H      -0.00737003      0.21200485     -1.51230090
H      -2.41500793      0.62365180     -1.72135627
