25
CC(NC(=O)c1ccccc1)C(=O)O
C      -2.28930090     -1.69304574     -2.05625070
C      -2.17629382     -0.95902926     -0.72465667
N      -0.79412056     -0.51275811     -0.52122020
C      -0.47841408      0.50230759      0.35107534
O      -1.33703215      1.00270489      1.07278011
C       0.95288362      0.89178054      0.45410318
C       1.39708260      1.49023968      1.63970218
C       2.73343154      1.86985010      1.77551138
C       3.62721390      1.66182675      0.72576754
C       3.18682166      1.08099052     -0.46345117
C       1.85065009      0.69826482     -0.60393462
C      -2.68520455     -1.83692235      0.43532014
O      -3.19564312     -2.94053946      0.29751919
O      -2.58694919     -1.24678422      1.65181602
H      -1.95939832     -1.05392000     -2.88239630
H      -1.66841490     -2.59616650     -2.06575340
H      -3.32323830     -1.99633555     -2.25226284
H      -2.82368557     -0.07382788     -0.75828076
H      -0.05322882     -1.13004006     -0.83142333
H       0.70606152      1.66045180      2.46299394
H       3.07583721      2.33039369      2.69920972
H       4.66748165      1.96104013      0.83208760
H       3.88473554      0.93487867     -1.28469704
H       1.52551101      0.27733112     -1.55083941
H      -2.23678606     -0.32269117      1.59728010
