32
c1ccc(-c2ccccc2-c2ccccc2)cc1
C       3.18031673     -2.07002055      0.57069171
C       3.12807658     -1.58803497     -0.73508479
C       2.29932551     -0.50796586     -1.04850523
C       1.50792708      0.10473428     -0.06258643
C       0.63958966      1.24929989     -0.39857076
C       1.24953409      2.46083819     -0.78621904
C       0.49279864      3.58875894     -1.10417593
C      -0.89303312      3.52968607     -1.04165589
C      -1.51961171      2.34265318     -0.66177800
C      -0.77665449      1.18844562     -0.33628080
C      -1.51191657     -0.03377919      0.04119729
C      -1.49066432     -1.17481202     -0.77625289
C      -2.19263260     -2.32798545     -0.41712171
C      -2.93148953     -2.35558132      0.76339062
C      -2.96956791     -1.23148999      1.58501185
C      -2.26633252     -0.07918052      1.22548780
C       1.57877000     -0.39184449      1.24852897
C       2.40633584     -1.47254596      1.56279075
H       3.82252143     -2.91179214      0.81530298
H       3.72970722     -2.05313739     -1.51129357
H       2.26499960     -0.14756035     -2.07449294
H       2.33548710      2.52887331     -0.83023878
H       0.98810617      4.51055340     -1.39728475
H      -1.48930324      4.40364188     -1.28987054
H      -2.60764590      2.31163118     -0.62891484
H      -0.91907435     -1.17010673     -1.70189802
H      -2.15880688     -3.20364508     -1.05965334
H      -3.47588129     -3.25346538      1.04318324
H      -3.54397690     -1.25072477      2.50721836
H      -2.30105025      0.78820273      1.88135598
H       0.98133424      0.06341523      2.03552716
H       2.44281170     -1.84706174      2.58219154
