15
CC=CCC
C      -2.54588573     -0.15488306      0.28216573
C      -1.14935647     -0.55263359     -0.06971557
C      -0.14543457      0.31860234     -0.25386149
C       1.25614278     -0.08210928     -0.61345207
C       2.24626375      0.33578740      0.46247534
H      -3.23854352     -0.50605045     -0.48873079
H      -2.65727055      0.93022056      0.37275265
H      -2.83310267     -0.60831914      1.23573052
H      -0.96632453     -1.61982610     -0.17505535
H      -0.33293356      1.38594443     -0.15216662
H       1.32809349     -1.16490107     -0.76882226
H       1.52587519      0.39541793     -1.56231531
H       2.01576887     -0.14382553      1.41981580
H       2.23481583      1.42065425      0.61297512
H       3.26189167      0.04592130      0.17457268
