20
c1ccc(-c2cccnc2)nc1
C      -3.38528805      0.12177362      0.30707597
C      -2.66560564      1.28636549      0.08955158
C      -1.28819169      1.21339292     -0.12542550
C      -0.65041673     -0.02905327     -0.11925823
C       0.80288797     -0.21626437     -0.33644830
C       1.70451284      0.83435398     -0.57318739
C       3.06526045      0.58520371     -0.77008792
C       3.50908806     -0.72254246     -0.72709631
N       2.69696606     -1.77131955     -0.50489177
C       1.37845551     -1.49226265     -0.31739216
N      -1.36068251     -1.16844010      0.09454764
C      -2.69337443     -1.07281997      0.30037062
H      -4.45548941      0.14381189      0.47714974
H      -3.16886413      2.24926168      0.08621630
H      -0.74480042      2.13537104     -0.29340848
H       1.37425507      1.86751394     -0.61043333
H       3.76029810      1.39717233     -0.95277710
H       4.55668877     -0.96743562     -0.87404787
H       0.76814625     -2.37660302     -0.14200968
H      -3.20384608     -2.01747957      0.46503091
