49
N[C@@H]1C[C@H]1c1ccccc1.N[C@@H]1C[C@H]1c1ccccc1.O=S(=O)(O)O
N      -3.17424097     -0.07219581      1.13169569
C      -2.02965836      0.38151281      0.34243736
C      -2.00629252      0.09157317     -1.12545127
C      -1.05746490     -0.64106376     -0.20568008
C       0.42115660     -0.33444495     -0.23917042
C       1.12377688     -0.00520398      0.93158622
C       2.49390988      0.26840455      0.90804156
C       3.19435062      0.20908692     -0.29330143
C       2.52596119     -0.12898070     -1.46624055
C       1.15544708     -0.40078340     -1.43538904
N       3.19110136     -0.21083322     -1.40949273
C       2.09286984      0.12193886     -0.50275438
C       1.91491568     -0.69148595      0.74086696
C       0.91700165     -0.82501755     -0.38639241
C      -0.48070856     -0.27149792     -0.23930311
C      -1.04216534      0.55344672     -1.22837465
C      -2.33917389      1.05940298     -1.10725753
C      -3.10754084      0.74257662      0.00898326
C      -2.58014262     -0.08138563      0.99845737
C      -1.28273366     -0.58493143      0.87076123
O      -0.71208029      1.48719240      0.42345726
S       0.02332427      0.24892502      0.37816139
O       0.85040766     -0.23392800      1.45462874
O       0.94843089      0.26082519     -0.93209605
O      -1.03548322     -0.89576637      0.00032557
H      -3.93825452      0.60124918      1.07600633
H      -2.92628415     -0.13949284      2.11844012
H      -1.62437789      1.34492721      0.64569082
H      -1.61551822      0.86137781     -1.77985065
H      -2.82493999     -0.47650626     -1.55324630
H      -1.30047210     -1.68505448     -0.01661709
H       0.59289705      0.03527302      1.87991344
H       3.01184852      0.52432756      1.82869336
H       4.26013986      0.42043819     -0.31412455
H       3.06861220     -0.18310733     -2.40612333
H       0.64940374     -0.67133691     -2.36008204
H       4.04421488      0.27411134     -1.13323593
H       2.98169677      0.10186600     -2.35699546
H       1.88671539      1.18719069     -0.41236289
H       1.62445509     -0.16686600      1.64331546
H       2.58554853     -1.52493217      0.91481017
H       0.98190420     -1.74603338     -0.96361652
H      -0.45742929      0.80358832     -2.11090697
H      -2.74810101      1.69630172     -1.88709177
H      -4.11693983      1.13331342      0.10524443
H      -3.17668280     -0.33660106      1.87062297
H      -0.88880555     -1.23415235      1.65011853
H       1.66287579     -0.39360161     -0.78744093
H      -1.73747511     -0.47364664     -0.53703598
