16
O=c1[nH]c2ccccc2[nH]1
O      -3.63779982      0.36521472     -0.11789904
C      -2.42667163      0.24362433     -0.07864682
N      -1.70332450     -0.95641497     -0.13560279
C      -0.34620133     -0.66366777     -0.06102636
C       0.73828234     -1.50770733     -0.07830523
C       2.00002935     -0.90922582      0.01429943
C       2.13747068      0.49384392      0.11979356
C       1.01640880      1.33154616      0.13517311
C      -0.21070191      0.71957770      0.04297773
N      -1.48459695      1.27646454      0.03228485
H      -2.12949277     -1.86437618     -0.21721456
H       0.62934415     -2.58201652     -0.15922720
H       2.89229651     -1.53237492      0.00516743
H       3.13325442      0.92744314      0.19011639
H       1.11801602      2.40659139      0.21585690
H      -1.72631337      2.25147760      0.09225261
