44
C1=C\CC/C=C\CC/1.C1=C\CC/C=C\CC/1.[Cl].[Cl].[Rh].[Rh]
C      -0.88783984     -1.28570442      0.64043396
C       0.35156541     -1.53342882      0.26938295
C       1.21052756     -0.90184415     -0.76729103
C       1.94352634      0.21363252     -0.08775945
C       1.08134643      1.26727108      0.45406191
C      -0.22233360      1.51423217      0.36904180
C      -1.43220783      0.99298221     -0.21403182
C      -1.92586811     -0.33409592      0.22910595
C      -0.47335637      1.55443184     -0.45738655
C       0.83660850      1.46120394     -0.42396890
C       1.75499038      0.56695682      0.34574390
C       1.60549062     -0.84956479     -0.18736619
C       0.45156583     -1.55653424      0.41169032
C      -0.87526887     -1.46765787      0.37559504
C      -1.78456009     -0.55118147     -0.33690542
C      -1.60298214      0.87048411      0.20195928
Cl      0.00000000      0.00000000      0.00000000
Cl      0.00000000      0.00000000      0.00000000
Rh      0.00000000      0.00000000      0.00000000
Rh      0.00000000      0.00000000      0.00000000
H      -1.19542953     -1.95063308      1.43739384
H       0.84402788     -2.33505381      0.80437288
H       0.61568344     -0.52379357     -1.62719864
H       1.94601477     -1.65326511     -1.09188313
H       2.66207356      0.65709519     -0.80369135
H       2.53854608     -0.20981257      0.74954156
H       1.63354629      1.97342841      1.03469019
H      -0.42540784      2.41789693      0.93926498
H      -2.24997612      1.73015589     -0.07826506
H      -1.28177788      0.97216601     -1.33828582
H      -2.51085748     -0.78193057     -0.62983238
H      -2.69515953     -0.22929840      1.03843416
H      -0.80846938      2.31896353     -1.13282490
H       1.36723181      2.16847322     -1.08117991
H       1.49134211      0.56232044      1.41682346
H       2.79769920      0.91353024      0.27232452
H       1.54071905     -0.79980628     -1.28883404
H       2.54118681     -1.37846114      0.10093684
H       0.74255454     -2.39075405      1.07454072
H      -1.38834930     -2.21823582      0.99260320
H      -2.82960577     -0.85541852     -0.30902828
H      -1.45983631     -0.52314763     -1.40946166
H      -2.54544003      1.43003890      0.15434778
H      -1.36152058      0.74435875      1.28039077
