9
[Fe+3].[Fe+3].[O-2].[O-2].[O-2].[O-2].[O-2].[Sr+2].[Sr+2]
Fe      0.00000000      0.00000000      0.00000000
Fe      0.00000000      0.00000000      0.00000000
O       0.00000000      0.00000000      0.00000000
O       0.00000000      0.00000000      0.00000000
O       0.00000000      0.00000000      0.00000000
O       0.00000000      0.00000000      0.00000000
O       0.00000000      0.00000000      0.00000000
Sr      0.00000000      0.00000000      0.00000000
Sr      0.00000000      0.00000000      0.00000000
