27
COP(=O)(OC)OC1=C(Cl)CC2C=CC12
C       3.41684321      1.63203239      0.68808042
O       3.10598327      0.31610342      0.27822561
P       1.58923190     -0.17235761      0.52948832
O       1.12954152     -0.05478574      1.94994036
O       1.59601626     -1.67476721     -0.05776348
C       2.26681986     -2.64777409      0.71575555
O       0.74446675      0.66077884     -0.56150516
C      -0.58949352      0.52278346     -0.82727505
C      -1.28033800      1.19032639     -1.75554577
Cl     -0.65297665      2.37181912     -2.80806797
C      -2.72807127      0.81610087     -1.82845934
C      -2.88632810     -0.24775599     -0.72719704
C      -3.30583985      0.22334945      0.65684561
C      -2.07392424      0.07516933      1.17959298
C      -1.46349800     -0.43374115     -0.11082660
H       3.29481227      1.72764581      1.77030033
H       2.77301262      2.35209861      0.17588617
H       4.45762799      1.84317188      0.43017633
H       3.30849431     -2.35673042      0.87547626
H       2.24453161     -3.59931227      0.17871211
H       1.76378531     -2.77404603      1.67817532
H      -3.38244074      1.67743150     -1.65772100
H      -2.95876320      0.38515814     -2.80891215
H      -3.36204686     -1.17093374     -1.07891077
H      -4.25576217      0.56100332      1.06208577
H      -1.64983204      0.24422056      2.16699376
H      -1.10185222     -1.46698884     -0.11355058
