31
O=c1[nH]c(=O)n(C2CC(O)C(CO)O2)cc1C(F)(F)F
O       4.69420553      1.29799797     -0.68173302
C       3.48970677      1.08050846     -0.66901315
N       2.74358853      1.12483494     -1.81459909
C       1.40227520      0.86826817     -1.92047540
O       0.84748687      0.88047121     -3.01641435
N       0.75212764      0.59091090     -0.72494360
C      -0.67269872      0.29755651     -0.80601149
C      -0.96253746     -1.13730366     -1.22476246
C      -2.32563878     -1.35843197     -0.61850164
O      -2.62089869     -2.73186772     -0.45684698
C      -2.17446002     -0.63628700      0.71400162
C      -3.50209397     -0.16066915      1.29509577
O      -3.27069385      0.53630810      2.51965739
O      -1.32310766      0.50752843      0.46356387
C       1.44096422      0.51746502      0.47216630
C       2.75794318      0.74752695      0.55913826
C       3.56648350      0.69363343      1.79803239
F       2.79987437      0.37502008      2.87891920
F       4.54137908     -0.24786925      1.74542867
F       4.15226980      1.88008196      2.09457630
H       3.23335019      1.33289171     -2.67192963
H      -1.14031436      0.99488897     -1.51285683
H      -0.94603972     -1.27932322     -2.30976029
H      -0.23509658     -1.84152462     -0.80059466
H      -3.10142128     -0.89293679     -1.23824542
H      -2.62735458     -3.14589465     -1.33839034
H      -1.65886530     -1.26163620      1.45387553
H      -4.17247828     -1.00075422      1.49804200
H      -4.00297066      0.53725225      0.61628884
H      -2.54843224      1.16713113      2.33713330
H       0.86344726      0.26422226      1.35915888
