28
CNC(Cc1ccc(O)c(O)c1)C(=O)O
C      -2.58968839      0.80225635      1.74554555
N      -1.86560297     -0.27660213      1.05790603
C      -1.79325359      0.00146095     -0.41846844
C      -0.58756320     -0.69794498     -1.07842005
C       0.75149571     -0.19848047     -0.58162609
C       1.17576472      1.10848526     -0.87942508
C       2.40116268      1.58284662     -0.40746755
C       3.20243027      0.74791196      0.35509068
O       4.39964352      1.21326864      0.81745887
C       2.80137357     -0.55234538      0.64745646
O       3.64538565     -1.32338186      1.39811582
C       1.58095576     -1.03400188      0.18517529
C      -3.05769387     -0.55427096     -1.09025598
O      -3.40074857     -0.31684477     -2.23779257
O      -3.74057734     -1.39228044     -0.26702938
H      -2.64172320      0.57292709      2.81424967
H      -2.07466802      1.76171241      1.63160916
H      -3.61545858      0.89842264      1.37662100
H      -0.90631260     -0.25589426      1.42116621
H      -1.75450016      1.08278727     -0.59687258
H      -0.65974046     -1.78428774     -0.93038407
H      -0.61984685     -0.55420518     -2.16706395
H       0.55708556      1.76681632     -1.48641482
H       2.72946663      2.59226220     -0.63657103
H       4.78347340      0.45895332      1.30731687
H       3.26348883     -2.21516175      1.46776756
H       1.26635319     -2.04820463      0.41366828
H      -3.25070171     -1.38620461      0.59289943
