20
CC(=O)OC(C)(C)C
C       2.95380903      0.43587404     -0.01772148
C       1.58799296      0.07875731      0.48553690
O       1.35445795     -0.28192227      1.62901088
O       0.68216372      0.22064213     -0.51732173
C      -0.72308505     -0.06367342     -0.29285522
C      -1.39835131      0.21332369     -1.64474455
C      -1.32119358      0.88048524      0.75582364
C      -0.94159810     -1.53633930      0.07101843
H       3.23450325     -0.23331274     -0.83493568
H       2.96590075      1.47685771     -0.35035579
H       3.68026433      0.32058275      0.79183627
H      -0.96994832     -0.41908670     -2.43115103
H      -1.23221074      1.25070749     -1.95801689
H      -2.47770494      0.03263576     -1.60535322
H      -0.92571827      0.68314710      1.75672049
H      -1.07950869      1.92358121      0.52269255
H      -2.41054966      0.77865910      0.80842584
H      -0.43294459     -2.19300094     -0.64373869
H      -2.00702363     -1.79052762      0.08045057
H      -0.53925512     -1.77739053      1.05952835
