18
N#Cc1ccc(C(F)(F)F)cc1[N+](=O)[O-]
N      -3.27472351      1.94635852      1.76934962
C      -2.34646826      1.46807747      1.26541078
C      -1.17009604      0.89521508      0.67900367
C       0.03803672      1.60082849      0.75926571
C       1.21852443      1.05768425      0.23462930
C       1.21981482     -0.20336415     -0.38461767
C       2.50372163     -0.79609899     -0.92330592
F       3.38884768      0.14837098     -1.34198539
F       2.29729614     -1.61683351     -1.98849438
F       3.15408560     -1.54016488      0.00986996
C       0.01488621     -0.91858603     -0.46119817
C      -1.16230712     -0.35841400      0.06155542
N      -2.38783657     -1.12593597     -0.06076787
O      -2.37858225     -2.26935080      0.41046309
O      -3.32990279     -0.59030054     -0.65455855
H       0.07363610      2.57960992      1.23923430
H       2.14610023      1.62694583      0.31506071
H      -0.00503304     -1.90404166     -0.92891462
