33
CCOC(=O)C(C)C1CCCCC1
C      -3.61644049      1.75449456     -0.28394299
C      -3.78263598      0.26525401     -0.52162905
O      -2.51514718     -0.32985049     -0.83483187
C      -1.76139083     -0.71498810      0.23261488
O      -2.08363783     -0.59411050      1.40681954
C      -0.44593688     -1.31163566     -0.24238065
C      -0.39123797     -2.75620434      0.25726000
C       0.74131743     -0.43625973      0.23633604
C       0.66251320      0.97616712     -0.38221298
C       1.84020631      1.85596374      0.02912906
C       3.17363771      1.20131639     -0.30633968
C       3.27699186     -0.18587753      0.31345471
C       2.10394876     -1.07711158     -0.08997872
H      -3.14157399      2.23104367     -1.14787148
H      -4.58541055      2.22948854     -0.10653764
H      -2.97081990      1.94520596      0.57913626
H      -4.43487641      0.10125041     -1.38564609
H      -4.25422715     -0.22859295      0.33569499
H      -0.45005741     -1.34036138     -1.34012488
H      -1.32324969     -3.28509736      0.02733679
H       0.42346961     -3.31095968     -0.21804642
H      -0.24887315     -2.79674577      1.34278493
H       0.67571389     -0.32516480      1.32809681
H      -0.26377297      1.47615853     -0.07748051
H       0.63612924      0.89901601     -1.47679696
H       1.76879948      2.82557702     -0.47656606
H       1.78897554      2.05346218      1.10695105
H       3.28212649      1.12585714     -1.39524842
H       3.99547661      1.82985247      0.05450866
H       3.30662419     -0.09673392      1.40647580
H       4.21800736     -0.65659703      0.00692356
H       2.21109281     -2.03366124      0.43318565
H       2.16425790     -1.29015569     -1.16483467
