22
Clc1ccccc1-c1ccc(Cl)c(Cl)c1Cl
Cl     -0.73960019     -2.71777747     -0.42248507
C      -1.51685651     -1.19425856     -0.15644949
C      -2.91481372     -1.17695478     -0.11677955
C      -3.59480957      0.02288400      0.08722982
C      -2.87984599      1.20637945      0.25076500
C      -1.48351786      1.19179546      0.21131771
C      -0.77659906     -0.00804477      0.00958064
C       0.69667680      0.02061357     -0.02664042
C       1.33257113      0.24438029     -1.25992739
C       2.72294582      0.27349991     -1.35376584
C       3.50661510      0.08121540     -0.21470930
Cl      5.22359965      0.13598413     -0.42546235
C       2.90285173     -0.14120492      1.03183517
Cl      3.88933429     -0.37278601      2.44512994
C       1.49692782     -0.17045117      1.12393710
Cl      0.71993685     -0.43603542      2.66120979
H      -3.47932693     -2.09757730     -0.24264920
H      -4.68159381      0.03337346      0.12096523
H      -3.40846825      2.14288461      0.41356030
H      -0.94429240      2.12792163      0.34727171
H       0.73866507      0.39013185     -2.16203775
H       3.18960003      0.44402665     -2.32189606
