43
O=C(O)CN(CC(=O)O)Cc1cc2c(c(O)c1O)C(=O)c1ccccc1C2=O
O       2.61831474      1.92973208      2.49634323
C       2.62780911      1.56138415      1.33213685
O       1.81567899      2.10049089      0.38297199
C       3.58396781      0.51811356      0.75047993
N       3.11736678      0.09783142     -0.60790819
C       4.26021791     -0.04383795     -1.55520187
C       5.21926060     -1.20249307     -1.31055117
O       5.77649037     -1.84632974     -2.18735845
O       5.48208419     -1.47146830     -0.01667870
C       2.33437841     -1.16150922     -0.54781772
C       0.93103703     -0.94913257     -0.02889884
C      -0.04931083     -0.39386465     -0.86994839
C      -1.34424206     -0.13268272     -0.39250679
C      -1.67880587     -0.42437851      0.92973599
C      -0.71494589     -0.99618771      1.76575990
O      -0.95395472     -1.34335961      3.07600254
C       0.57296633     -1.24964321      1.28554436
O       1.49441465     -1.79141796      2.13936618
C      -3.03661200     -0.13848783      1.42903785
O      -3.32552586     -0.42656340      2.58717563
C      -4.02851258      0.48045606      0.52998119
C      -5.30985637      0.78220165      1.00795034
C      -6.25419272      1.35752395      0.15655061
C      -5.92435303      1.62906601     -1.17126392
C      -4.64748957      1.32871113     -1.64901168
C      -3.69741588      0.75526619     -0.79557328
C      -2.35053963      0.43760773     -1.31028308
O      -2.07455373      0.62780856     -2.48821667
H       2.00018946      1.60122518     -0.44957414
H       3.67027726     -0.32181977      1.44670546
H       4.55336252      1.02609444      0.68761130
H       3.83764655     -0.18306271     -2.56053467
H       4.84133103      0.88603528     -1.59025351
H       6.11085447     -2.22017128     -0.04396094
H       2.22689363     -1.57329885     -1.56039162
H       2.84967634     -1.94480408      0.02039861
H       0.20049385     -0.15282571     -1.90340695
H      -1.88183006     -1.08667413      3.28875174
H       1.03122182     -1.85546955      3.00180914
H      -5.57580881      0.57698853      2.04221046
H      -7.24937464      1.59434789      0.52674623
H      -6.66066612      2.07811442     -1.83523675
H      -4.39794348      1.54048343     -2.68806899
