29
NC(=O)Cc1ccc(-c2ccccc2)cc1
N      -3.94411612      1.83108273      0.73827310
C      -4.14129296      0.73127284      1.52455982
O      -4.80067004      0.81504880      2.55634858
C      -3.57470233     -0.57778305      1.00730456
C      -2.12557173     -0.49562909      0.58868877
C      -1.76252215     -0.61182647     -0.75763954
C      -0.42039865     -0.51828363     -1.13960779
C       0.59253317     -0.30738500     -0.19063430
C       2.00460821     -0.20867431     -0.59615444
C       2.60622135     -1.21110150     -1.37549945
C       3.94641979     -1.11823730     -1.76102430
C       4.70865839     -0.01921093     -1.37385933
C       4.13253950      0.98579856     -0.60130879
C       2.79247207      0.89078968     -0.21576437
C       0.21661936     -0.19558306      1.15709537
C      -1.12369291     -0.28940192      1.54419238
H      -4.23915508      2.71329370      1.13680822
H      -3.16629840      1.85847581      0.09078513
H      -4.20463328     -0.90923535      0.17325270
H      -3.66967307     -1.33465740      1.79546867
H      -2.51812064     -0.77588695     -1.52321529
H      -0.16789366     -0.60288789     -2.19513209
H       2.03272263     -2.08487612     -1.67851631
H       4.39380444     -1.90677330     -2.36046903
H       5.75093392      0.05345126     -1.67306149
H       4.72397017      1.84601241     -0.29879935
H       2.36015485      1.69260268      0.37938239
H       0.97467168     -0.04750972      1.92420737
H      -1.37758850     -0.20288546      2.59949920
