14
c1cnc2ncncc2n1
C      -2.23884441      0.16563043      0.36118739
C      -1.93274877      1.02636964     -0.67037434
N      -0.67328950      1.17464210     -1.14197910
C       0.29719428      0.44985092     -0.57251352
N       1.53876290      0.59449116     -1.03573658
C       2.49591401     -0.13653444     -0.45613867
N       2.32051066     -1.00067786      0.54732668
C       1.04850663     -1.11562314      0.98496775
C      -0.02932070     -0.42457955      0.47921778
N      -1.29226676     -0.58100058      0.96075680
H      -3.25092634      0.05326166      0.73263875
H      -2.69320440      1.62871726     -1.15488469
H       3.50523213     -0.01634561     -0.83562417
H       0.90448028     -1.81820200      1.80115591
