11
C=C/C=C\C#N
C      -1.81116056     -0.51937565     -0.94595316
C      -0.70725500      0.08583081     -0.49185257
C       0.23510030     -0.56530557      0.39122245
C       1.35995539     -0.02675902      0.88709682
C       1.81629334      1.29265525      0.62119709
N       2.19696724      2.36775317      0.41022442
H      -2.49260341      0.00701758     -1.60809130
H      -2.06929927     -1.53936669     -0.67944906
H      -0.51342370      1.11157368     -0.80220749
H      -0.00000410     -1.59078688      0.67488592
H       1.98542977     -0.62323669      1.54292687
