22
CCOC(=O)C(=O)C(=O)OCC
C      -4.50588365      0.66940431      0.88619456
C      -3.29272762      0.42834241      0.00931846
O      -2.22345649     -0.03458130      0.84133071
C      -1.07491516     -0.29036669      0.18289178
O      -0.86947498     -0.16606130     -1.01199121
C       0.00254562     -0.77463664      1.13734538
O      -0.16942174     -0.80686267      2.34900894
C       1.31866416     -1.23548401      0.56326854
O       1.55420341     -2.40201414      0.30811775
O       2.12812556     -0.16654159      0.40920558
C       3.41671014     -0.48873052     -0.12596674
C       4.21272609      0.79566046     -0.25066878
H      -5.35210207      1.02574023      0.29221608
H      -4.28059402      1.40988120      1.66081913
H      -4.79818130     -0.25154058      1.40148547
H      -3.00005672      1.36253803     -0.48304960
H      -3.52702122     -0.32909587     -0.74711894
H       3.30247732     -0.95064833     -1.11314162
H       3.93415942     -1.18127657      0.54745810
H       3.69732286      1.50653916     -0.90498296
H       4.31807163      1.28022578      0.72564970
H       5.20882876      0.59950862     -0.65708191
