46
CCCCCCCCCC1(CC)C(=O)NC(=O)NC1=O
C       7.33874803     -1.01062927      0.00074891
C       5.93411239     -0.91743739      0.57504367
C       4.95134373     -0.33517539     -0.44050549
C       3.53969167     -0.24314631      0.14110394
C       2.55600856      0.33943217     -0.87520136
C       1.14359691      0.43189347     -0.29284522
C       0.16112101      1.01123957     -1.31345854
C      -1.24441327      1.24325182     -0.74548488
C      -1.98829955     -0.06046658     -0.42155152
C      -3.42627562      0.11312390      0.16339743
C      -4.32248981      0.94072194     -0.79020259
C      -5.77992306      1.06866277     -0.34697649
C      -3.96894364     -1.30367981      0.31737394
O      -4.62749041     -1.88307334     -0.54301687
N      -3.61601445     -1.95889724      1.46552995
C      -3.28575011     -1.34294553      2.63190845
O      -3.37659379     -1.92191818      3.70932908
N      -2.93531821     -0.03177748      2.55905930
C      -3.30402844      0.78373569      1.52575089
O      -3.47025657      1.98540331      1.71842974
H       8.02489377     -1.42946038      0.74351147
H       7.35924717     -1.65639743     -0.88293625
H       7.71139498     -0.02230576     -0.28680576
H       5.95438851     -0.29165989      1.47487517
H       5.60418938     -1.91674348      0.88203650
H       5.28817075      0.66254818     -0.74736559
H       4.93796762     -0.96246454     -1.34017151
H       3.55310277      0.38435473      1.04058474
H       3.20312298     -1.24095380      0.44788029
H       2.54173466     -0.28825980     -1.77454580
H       2.89341641      1.33694414     -1.18195507
H       1.15738085      1.06298775      0.60389779
H       0.82023542     -0.56758162      0.01751182
H       0.54633009      1.97508359     -1.66932223
H       0.10190806      0.35299475     -2.18871874
H      -1.80797137      1.80896597     -1.49523999
H      -1.17214963      1.87504892      0.14657411
H      -1.38416749     -0.64846405      0.28027995
H      -2.04667941     -0.66257379     -1.33903403
H      -3.92920924      1.95896332     -0.89255061
H      -4.30696158      0.49608615     -1.79346470
H      -6.32941194      1.69067099     -1.06149600
H      -5.86467567      1.54113678      0.63570816
H      -6.28179593      0.09830639     -0.30437385
H      -3.99180373     -2.89255303      1.56541158
H      -2.86148277      0.42700781      3.45774613
