25
CCC(C)c1ccccc1O
C      -2.18417310      1.18004772      0.93369387
C      -2.06949718     -0.25885009      0.44504599
C      -1.00356300     -0.44001387     -0.65597824
C      -1.07208720     -1.85964235     -1.23424316
C       0.40709441     -0.12779872     -0.17523004
C       0.98467949     -0.85851756      0.87842900
C       2.27749523     -0.57736630      1.32593797
C       3.01665596      0.43910840      0.72761325
C       2.46447022      1.17539163     -0.31884480
C       1.17127360      0.89040855     -0.76266269
O       0.63686459      1.61873501     -1.78911349
H      -3.00351882      1.26689697      1.65454350
H      -2.39198851      1.86119053      0.10237069
H      -1.26755550      1.51078122      1.43119469
H      -3.04701913     -0.56081034      0.04808043
H      -1.86718775     -0.91310927      1.30129710
H      -1.27156016      0.23787220     -1.47573704
H      -2.05908427     -2.05049218     -1.66958506
H      -0.32638640     -1.99702264     -2.02536516
H      -0.89403626     -2.62358314     -0.46964404
H       0.42840148     -1.65806851      1.36235375
H       2.70537952     -1.15380308      2.14211150
H       4.02243516      0.65719871      1.07645502
H       3.05367810      1.96467686     -0.77498054
H       1.28922952      2.27677023     -2.07774250
