41
CCCCC(CC)COC(=O)c1ccc(N)cc1
C      -5.65889694      1.81165123      0.71890716
C      -4.99563921      0.47125696      0.44479727
C      -3.48059387      0.61646099      0.29206073
C      -2.81886297     -0.73894221      0.02019907
C      -1.30625768     -0.63418351     -0.26517563
C      -0.75365532     -1.95779299     -0.84363927
C      -0.78879024     -3.14642317      0.10706107
C      -0.52191507     -0.15584059      0.97066937
O       0.89352649     -0.15157354      0.72091475
C       1.38294194      0.95805054      0.11384066
O       0.73512565      1.93588027     -0.22443150
C       2.84950571      0.82911161     -0.10328243
C       3.52886392      1.90088447     -0.69377261
C       4.90761418      1.82535350     -0.91765390
C       5.62046861      0.66767842     -0.59775245
N       7.01388507      0.64412085     -0.71246397
C       4.94954948     -0.37640045      0.04394264
C       3.57029673     -0.31021977      0.27290889
H      -6.74092724      1.68470269      0.82377325
H      -5.27780819      2.25616246      1.64384662
H      -5.47702677      2.51417376     -0.10067403
H      -5.22248076     -0.21734636      1.26704144
H      -5.42283167      0.03947753     -0.46775372
H      -3.26010172      1.30576422     -0.53184912
H      -3.07178433      1.05980283      1.20649651
H      -2.99575343     -1.40107294      0.87640032
H      -3.31233196     -1.20043222     -0.84468018
H      -1.16619596      0.11225684     -1.05891127
H       0.28071193     -1.80694317     -1.17594200
H      -1.32280237     -2.21633319     -1.74551646
H      -1.80853882     -3.37456198      0.42955522
H      -0.39473048     -4.03559529     -0.39618495
H      -0.17340038     -2.97102031      0.99398904
H      -0.84476733      0.83832353      1.29954578
H      -0.69253018     -0.82776289      1.81881387
H       2.99213847      2.80635342     -0.97045508
H       5.41926053      2.68312722     -1.34675870
H       7.40975438     -0.28927934     -0.76388792
H       7.37967714      1.25753049     -1.43417806
H       5.49663232     -1.25618713      0.37344398
H       3.07867035     -1.15021280      0.75675562
