30
O=C(O)C(Oc1ccccc1Cl)Oc1ccccc1Cl
O      -1.65241995     -3.05883865      0.90333994
C      -0.50355713     -2.74806223      0.61938412
O       0.42962514     -3.70012261      0.33095762
C       0.04473065     -1.29720747      0.50069948
O       1.45811511     -1.44730158      0.80532004
C       2.19339987     -0.40129274      0.31440630
C       2.46044583      0.67430018      1.16147775
C       3.24267753      1.73600485      0.70599339
C       3.77140328      1.71272782     -0.58573555
C       3.52736694      0.62237080     -1.42366117
C       2.74564563     -0.44010943     -0.97011059
Cl      2.48708060     -1.79293681     -2.00931616
O      -0.56465803     -0.36623752      1.39580785
C      -1.74928285      0.13740705      0.92358918
C      -2.91789483     -0.32616783      1.53321441
C      -4.16234739      0.16553092      1.13703981
C      -4.24299554      1.14289754      0.14726241
C      -3.07702632      1.63751384     -0.43883472
C      -1.82900963      1.14554931     -0.04498552
Cl     -0.42636633      1.84370593     -0.76569074
H       1.31388930     -3.28980265      0.20565959
H      -0.08262133     -1.01561654     -0.55366160
H       2.05374405      0.69313816      2.16952175
H       3.43983894      2.58310607      1.35912485
H       4.37954736      2.54296244     -0.93771983
H       3.95374496      0.60744150     -2.42332419
H      -2.86407392     -1.08707767      2.30919819
H      -5.06767902     -0.21626089      1.60336630
H      -5.21282451      1.52700712     -0.15979434
H      -3.14849841      2.41537109     -1.19504805
