20
NC(=O)CC[C@H](N)C(=O)O
N       3.20042295     -0.61365479      0.36125857
C       1.86239337     -0.80808710      0.53361130
O       1.39562031     -1.08222131      1.63227432
C       1.04497340     -0.68293264     -0.73379387
C      -0.46288442     -0.74371375     -0.46992445
C      -1.00686827      0.46805814      0.29920693
N      -2.37898071      0.16399497      0.82213014
C      -1.11958987      1.72014734     -0.59600677
O      -0.26674425      2.12544673     -1.36897434
O      -2.30896567      2.35037093     -0.40165806
H       3.57144445     -0.16932033     -0.46818605
H       3.77447428     -0.60881616      1.19497846
H       1.32439464      0.23856048     -1.25188715
H       1.32237095     -1.52267055     -1.38252806
H      -0.68148320     -1.66441805      0.08725528
H      -0.97915372     -0.82947294     -1.43496828
H      -0.38270043      0.74240263      1.15497784
H      -2.86540438     -0.41637023      0.12995629
H      -2.25495774     -0.46632407      1.62300663
H      -2.78836168      1.79902070      0.26927126
