24
CC1CCC(C)CC1
C       2.87113411      0.15662223     -0.46910060
C       1.36021300     -0.05097585     -0.55488648
C       0.61893347      1.27781012     -0.36087866
C      -0.89661717      1.08867995     -0.39285068
C      -1.36021278      0.05097611      0.63722541
C      -2.87113398     -0.15662230      0.55144100
C      -0.61893346     -1.27780991      0.44321700
C       0.89661682     -1.08868021      0.47518857
H       3.20801347      0.87306218     -1.22569223
H       3.40262839     -0.78550470     -0.63973395
H       3.16605939      0.53860392      0.51415349
H       1.12887646     -0.43263733     -1.55834756
H       0.90572871      1.72983342      0.59730816
H       0.91052854      1.98626738     -1.14543473
H      -1.38431477      2.05145549     -0.19873188
H      -1.19987027      0.77691572     -1.40059059
H      -1.12887549      0.43263848      1.64068625
H      -3.40262828      0.78550500      0.72207228
H      -3.16605936     -0.53860701     -0.43181207
H      -3.20801264     -0.87306059      1.30803486
H      -0.91052874     -1.98626716      1.22777296
H      -0.90572911     -1.72983278     -0.51496976
H       1.19986982     -0.77691672      1.48292795
H       1.38431387     -2.05145545      0.28106904
