62
O=c1[nH]c2ccccc2n1CCCN1CCN(C(c2ccccc2)c2ccccc2)CC1
O       4.32854681      0.02853617      2.96640248
C       5.12431180     -0.05433537      2.04606954
N       6.42431449     -0.57826849      2.13591182
C       7.01144663     -0.54964356      0.87652520
C       8.26003424     -0.97978322      0.49137520
C       8.58353709     -0.84105714     -0.86186972
C       7.66233636     -0.28670639     -1.77672810
C       6.39708723      0.14272922     -1.35864327
C       6.09649033      0.00175004     -0.02137979
N       4.93995588      0.32633941      0.70083079
C       3.71338804      0.84955236      0.14988683
C       2.75571343     -0.27299437     -0.24946460
C       1.50446033      0.23749855     -0.97472066
N       0.76743750      1.28689703     -0.25839585
C       0.15868738      0.82441903      1.00639379
C      -1.06791903     -0.10362989      0.83709794
N      -2.13782782      0.50098373      0.00380488
C      -3.26170401     -0.46073209     -0.21460863
C      -4.36471404      0.08151842     -1.13498204
C      -4.85302682     -0.71324951     -2.18651672
C      -5.86518915     -0.24280647     -3.02581854
C      -6.40714225      1.02472215     -2.82415619
C      -5.94020342      1.82305288     -1.78264962
C      -4.92887629      1.35458040     -0.94222626
C      -3.89258292     -0.97705980      1.08642924
C      -4.23200892     -0.11000877      2.13963010
C      -4.82045104     -0.59903018      3.30717079
C      -5.08508185     -1.96021639      3.43736359
C      -4.76338985     -2.83362703      2.40071558
C      -4.17392879     -2.34659183      1.23216623
C      -1.54236665      0.93821200     -1.28219503
C      -0.30990238      1.85589424     -1.09482406
H       6.82246370     -0.93469772      2.98826544
H       8.96205619     -1.40733109      1.19637628
H       9.55927477     -1.16526410     -1.21779228
H       7.94288811     -0.19152572     -2.82391009
H       5.69504721      0.56821337     -2.06473021
H       3.24983279      1.47670880      0.91992014
H       3.94622812      1.49552767     -0.70357848
H       3.27378097     -0.97317298     -0.91770255
H       2.47741243     -0.85995664      0.63385767
H       0.86511156     -0.62085859     -1.21126640
H       1.84025496      0.64369977     -1.93817994
H      -0.15618849      1.71312254      1.57066357
H       0.90216911      0.33622159      1.64552985
H      -0.74289785     -1.06136737      0.41051498
H      -1.44191532     -0.31276546      1.84493263
H      -2.82037882     -1.33159657     -0.72278940
H      -4.44970708     -1.70870275     -2.35629287
H      -6.23424339     -0.86790938     -3.83460085
H      -7.19665341      1.38918174     -3.47581824
H      -6.36361256      2.81072176     -1.62124578
H      -4.57097516      1.99110362     -0.13614903
H      -4.02630160      0.95464981      2.05481074
H      -5.07202939      0.08444095      4.11363984
H      -5.54479296     -2.33973569      4.34585656
H      -4.97511587     -3.89488632      2.50067988
H      -3.93846055     -3.04443541      0.43213964
H      -2.27060919      1.51224111     -1.86485452
H      -1.25917117      0.06891882     -1.88973189
H       0.08589545      2.14271572     -2.07708997
H      -0.64079487      2.79462510     -0.63004965
