32
CC(C)OC(=O)CCC(=O)OC(C)C
C      -5.03514582     -1.47972353      1.12179058
C      -4.21082028     -0.63176043      0.16082074
C      -4.76279478      0.78716481      0.08373607
O      -2.86483733     -0.59829423      0.67162979
C      -1.88132346     -0.35610543     -0.23914599
O      -2.05363007     -0.17001638     -1.43497914
C      -0.54498912     -0.35183687      0.45488040
C       0.58514732     -0.07659003     -0.52910879
C       1.92119952     -0.06931249      0.16543583
O       2.09414477     -0.26221545      1.36009660
O       2.90349954      0.18582991     -0.74311149
C       4.24861557      0.22854479     -0.23071077
C       4.53747304      1.61664224      0.32939100
C       5.18222853     -0.08939868     -1.39230283
H      -5.01076708     -1.06326220      2.13497799
H      -4.62012101     -2.49133832      1.18807206
H      -6.07733392     -1.55131045      0.79608697
H      -4.23417499     -1.10593224     -0.82791796
H      -5.80311371      0.78947941     -0.25577381
H      -4.71035616      1.28113941      1.06029609
H      -4.17399467      1.39821617     -0.60804262
H      -0.39925095     -1.32822642      0.93107004
H      -0.56170776      0.42015387      1.23280166
H       0.60334943     -0.84926399     -1.30626734
H       0.43805010      0.89915192     -1.00628881
H       4.38789732     -0.53403519      0.54521471
H       5.57031421      1.69407997      0.68263132
H       3.86980403      1.84693510      1.16593760
H       4.36641049      2.38827284     -0.42939293
H       6.22982238     -0.07547947     -1.07652281
H       5.05159884      0.62765561     -2.21044192
H       4.95480602     -1.07916426     -1.80296894
