29
CCOCCOCCOCC
C      -4.50394980      0.43809370     -1.48049606
C      -4.48155419     -0.71582871     -0.49391834
O      -3.55520174     -0.48302903      0.56519306
C      -2.20092196     -0.74684235      0.19918775
C      -1.30651279     -0.56009930      1.42437137
O       0.06088364     -0.86803811      1.14932879
C       0.75583329      0.20639058      0.51636934
C       2.21830658     -0.18412130      0.32467488
O       2.90593645      0.88192509     -0.32914832
C       4.27959501      0.59215388     -0.58062675
C       5.13012983      0.81408455      0.65737711
H      -4.65943723      1.38844064     -0.95962826
H      -3.55623894      0.51888809     -2.02104179
H      -5.30390030      0.30189965     -2.21429853
H      -5.47155255     -0.80620006     -0.03470233
H      -4.26664328     -1.66619959     -0.99522253
H      -1.89111582     -0.06856724     -0.60097771
H      -2.10191357     -1.77316571     -0.17356936
H      -1.40610303      0.45010775      1.83995726
H      -1.64096321     -1.24430991      2.21266540
H       0.69498197      1.11103429      1.13307529
H       0.30718306      0.43371489     -0.45667988
H       2.67016165     -0.39568141      1.29975980
H       2.28040343     -1.09757078     -0.27873735
H       4.61072785      1.28166172     -1.36421357
H       4.39772798     -0.42552167     -0.96956310
H       4.96225714      1.81573807      1.06624156
H       6.19200095      0.70214447      0.41980615
H       4.87987959      0.09889778      1.44633067
