21
C=CC(=O)OCCCC
C       4.65856958      0.32062435     -0.22833343
C       3.35537428      0.54694408     -0.43639729
C       2.32700914     -0.18091816      0.33677771
O       2.55006809     -1.01654973      1.19646081
O       1.11009957      0.24709812     -0.08158594
C       0.01062390     -0.38139190      0.59024865
C      -1.28176499      0.19380750      0.02117975
C      -2.51179428     -0.42164996      0.68214131
C      -3.79777893      0.15468603      0.11177831
H       4.99967829     -0.40025768      0.51032930
H       5.41303736      0.85478817     -0.79574736
H       3.01454212      1.26493890     -1.17208116
H       0.04834834     -1.46383416      0.42000589
H       0.07316362     -0.17594961      1.66540882
H      -1.30788551      0.02449600     -1.06263352
H      -1.28363693      1.28296718      0.15432430
H      -2.48433823     -0.23949160      1.76275497
H      -2.50878580     -1.50806634      0.53601900
H      -4.66586587     -0.29997512      0.59924617
H      -3.84703951      1.23669589      0.27046944
H      -3.87162424     -0.03896197     -0.96311796
