23
C=CN1CCCCCC1=O
C       3.20621361     -0.08324790     -0.50048170
C       2.25470025      0.76406625     -0.09407772
N       0.97181401      0.45097234      0.34970063
C       0.54274453     -0.94190300      0.51415650
C      -0.36890205     -1.40660940     -0.61747410
C      -1.82319877     -0.98096051     -0.42752985
C      -2.03207633      0.52728052     -0.32235079
C      -1.35899237      1.15356025      0.89470779
C       0.09217000      1.50912400      0.62580288
O       0.43275234      2.69534739      0.63150202
H       3.09188263     -1.15768263     -0.54435643
H       4.16405785      0.31034303     -0.82962486
H       2.48388354      1.83082124     -0.12361047
H       0.03743422     -1.04269389      1.48185150
H       1.40917705     -1.60519777      0.58457579
H      -0.34700513     -2.50269856     -0.65464659
H       0.00396567     -1.04862938     -1.58460763
H      -2.23028598     -1.46693644      0.46813753
H      -2.40874457     -1.35771303     -1.27508776
H      -1.68970428      1.01304861     -1.24427628
H      -3.11156992      0.70929951     -0.25099470
H      -1.87460518      2.09503817      1.12529782
H      -1.44571114      0.53537120      1.79338642
