36
CCC(=O)N(C)c1ccc(S(=O)(=O)N(C)C)cc1
C       5.49801914      1.50404756     -0.66760777
C       4.56560526      0.59487019      0.11964985
C       3.14029707      0.59348755     -0.42938204
O       2.87084674      1.30693535     -1.39691127
N       2.22354827     -0.26413812      0.21533103
C       2.66366178     -1.21214954      1.24303027
C       0.84153333     -0.35050790     -0.20536918
C       0.08233872     -1.51068659      0.04361543
C      -1.26118546     -1.60742409     -0.34115366
C      -1.87735786     -0.52853212     -0.97135036
S      -3.57558788     -0.65556445     -1.49269848
O      -3.89187392     -2.06552201     -1.59034397
O      -3.75048632      0.22875913     -2.62523722
N      -4.43429995     -0.01048785     -0.17179586
C      -4.43784533     -0.79999100      1.07069840
C      -4.31291325      1.43884400      0.05973463
C      -1.14945870      0.62558700     -1.24911554
C       0.19271236      0.71200108     -0.85593642
H       6.50575319      1.47551167     -0.24169502
H       5.14767007      2.54132285     -0.64616934
H       5.56071025      1.19114341     -1.71511695
H       4.54141799      0.94416370      1.15726511
H       4.96477764     -0.42415327      0.08240446
H       3.53989546     -0.85685389      1.78720694
H       2.91662174     -2.16198918      0.76181148
H       1.88027215     -1.35598918      1.99429891
H       0.52403992     -2.38865550      0.50675021
H      -1.80811159     -2.52973922     -0.15681905
H      -5.24186631     -0.44965817      1.72638772
H      -4.63276242     -1.85667772      0.86886773
H      -3.48860908     -0.69901248      1.60419653
H      -3.36481622      1.68204712      0.54726267
H      -5.13017407      1.77614253      0.70585529
H      -4.39766315      1.99958322     -0.87493429
H      -1.60796876      1.46384783     -1.76953962
H       0.70325919      1.64943810     -1.05984842
