38
CC(C)=NNC(=N)N1Cc2cccc3cccc(c23)C1
C       3.84380365     -2.09169977      0.69370299
C       4.40301166     -0.71373158      0.43766205
C       5.89180314     -0.53419439      0.59736018
N       3.69712808      0.32580517      0.10675488
N       2.34345030      0.16760706     -0.00154578
C       1.49962313      1.21172879     -0.28312304
N       1.95297653      2.40058891     -0.52329390
N       0.16314657      0.89379682     -0.25496453
C      -0.31163973     -0.14489882     -1.17906221
C      -1.69350477     -0.62219025     -0.79990194
C      -2.12347426     -1.90618063     -1.16633741
C      -3.40913445     -2.33595095     -0.84572755
C      -4.28122851     -1.48403554     -0.16805530
C      -3.87993691     -0.18918983      0.19383943
C      -4.74859782      0.68681742      0.86233604
C      -4.33676214      1.97547866      1.20182037
C      -3.05052498      2.40312435      0.88117956
C      -2.15864519      1.54049788      0.22712898
C      -2.57271399      0.24495667     -0.12829705
C      -0.77382138      2.02197315     -0.14481532
H       4.65411592     -2.82282439      0.76059214
H       3.29352317     -2.08971230      1.63846087
H       3.17820553     -2.38806808     -0.12140056
H       6.18097648      0.50239098      0.40379227
H       6.17998573     -0.80169367      1.61756255
H       6.41229833     -1.18803717     -0.10760226
H       1.88425252     -0.54100291      0.56383295
H       2.97583536      2.27574817     -0.44773568
H      -0.33292596      0.24425556     -2.20494268
H       0.36756976     -1.00554713     -1.16161480
H      -1.45784661     -2.57774855     -1.70377487
H      -3.73627386     -3.33364552     -1.12712651
H      -5.28218016     -1.83612801      0.07103732
H      -5.75735290      0.37204998      1.11951043
H      -5.02071172      2.64674226      1.71473914
H      -2.74186313      3.41213728      1.14657057
H      -0.82717061      2.57348517     -1.09207298
H      -0.42539675      2.70729521      0.63840422
