40
CCCC(=O)N(CSP(=S)(OC)OC)c1ccccc1Cl
C      -4.17500248      3.14046334     -0.00143164
C      -2.68469411      2.86568038     -0.12064291
C      -2.39165538      1.36520512     -0.14335308
C      -0.90107454      1.07383509     -0.29330020
O      -0.06243305      1.97148701     -0.18157182
N      -0.53707325     -0.23763962     -0.59522287
C       0.87713204     -0.53371950     -0.81043232
S       1.72096237     -0.85768064      0.75942869
P       3.73288669     -0.73839360      0.16609483
S       4.34489174     -2.01211386     -1.17911960
O       4.02959835      0.79090512     -0.29794504
C       3.64442012      1.86704901      0.53618423
O       4.60532458     -0.80084369      1.53883575
C       6.01333636     -0.67461203      1.47189750
C      -1.43095174     -1.34283742     -0.53624877
C      -1.97689129     -1.70699970      0.70290724
C      -2.82938903     -2.80787352      0.80541949
C      -3.14402993     -3.55551457     -0.32748085
C      -2.60852096     -3.20278789     -1.56661068
C      -1.75362482     -2.10202865     -1.67468550
Cl     -1.19171214     -1.67328575     -3.25300117
H      -4.72164337      2.71348479     -0.84830630
H      -4.36157711      4.21880461      0.01426719
H      -4.58025288      2.71196629      0.92078552
H      -2.16303927      3.33717414      0.72079821
H      -2.30190323      3.33468014     -1.03497069
H      -2.93185442      0.90663280     -0.97908552
H      -2.74290971      0.92507553      0.79502941
H       0.99842817     -1.40680154     -1.45672716
H       1.35330969      0.31755045     -1.30737126
H       2.61193804      2.14833824      0.32011158
H       3.74686280      1.61367874      1.59435154
H       4.29034527      2.72157133      0.31871586
H       6.38034140     -0.37184481      2.45602656
H       6.46077645     -1.63817984      1.21563678
H       6.31138438      0.08228564      0.74170203
H      -1.71683773     -1.15468698      1.60361690
H      -3.23994739     -3.08787565      1.77307412
H      -3.80702528     -4.41396158     -0.24636766
H      -2.86789532     -3.78618693     -2.44688727
