52
CN1CCN(CCCN2c3ccccc3Sc3ccc(C(F)(F)F)cc32)CC1
C       6.60326613      0.90203295     -0.62673392
N       5.38807378      0.60238892      0.12657626
C       4.74371741      1.84397066      0.59348913
C       3.42339655      1.56158797      1.34509822
N       2.45150363      0.80104823      0.52696289
C       1.23877289      0.52437625      1.31138567
C       0.09643980     -0.04917719      0.46457060
C      -1.18769514     -0.15584295      1.30073333
N      -2.30115920     -0.75470132      0.52804532
C      -2.47541669     -2.16690560      0.63123526
C      -1.45674334     -3.01939795      1.11691507
C      -1.61328755     -4.40805440      1.21012509
C      -2.80089820     -4.99837885      0.81472202
C      -3.82390259     -4.19538951      0.32528149
C      -3.66979509     -2.79766484      0.22740967
S      -5.08396020     -1.91898099     -0.39207040
C      -4.43776670     -0.28175198     -0.62909641
C      -5.28956987      0.60782374     -1.31260927
C      -4.91590563      1.92693067     -1.54607971
C      -3.68047400      2.38189170     -1.09312673
C      -3.23388680      3.79868232     -1.35671827
F      -2.48554227      3.90459746     -2.48843986
F      -2.46781532      4.30884272     -0.35173321
F      -4.27053902      4.66934325     -1.50948472
C      -2.83126990      1.48298961     -0.41603737
C      -3.17962364      0.13719345     -0.15310948
C       3.10362713     -0.43370285      0.03888737
C       4.43139154     -0.15217833     -0.70440714
H       6.40371079      1.51152226     -1.51552981
H       7.09344108     -0.02389290     -0.94726426
H       7.32232688      1.43732626      0.00321460
H       5.42032015      2.37215929      1.27619772
H       4.53932726      2.51676935     -0.25057047
H       2.98371734      2.52555351      1.62895209
H       3.64920122      1.01916431      2.27346098
H       1.45984436     -0.15154181      2.14777113
H       0.88412854      1.46679460      1.74899266
H      -0.06787825      0.58772173     -0.41177516
H       0.36882948     -1.03470919      0.07439173
H      -0.99716357     -0.72512219      2.22003014
H      -1.46867682      0.82980805      1.69449208
H      -0.49107779     -2.63382391      1.42594730
H      -0.79919344     -5.02132320      1.58826987
H      -2.93281253     -6.07444872      0.88269829
H      -4.75513816     -4.66687326      0.01675304
H      -6.26095537      0.26924098     -1.67008653
H      -5.59246974      2.59087040     -2.08124907
H      -1.86503747      1.87750479     -0.11224814
H       2.44417917     -0.95381281     -0.66408624
H       3.30010259     -1.11876139      0.87461805
H       4.87476526     -1.11441985     -0.98808650
H       4.21157132      0.39272056     -1.63275310
