47
COC(=O)CCCNC(=O)NC12CC3CC(CC(C3)C1)C2
C       6.60039266      1.90258607     -0.45319483
O       5.45176861      1.25899827     -1.00622755
C       5.20717610      0.02067280     -0.49035302
O       5.88319514     -0.52663626      0.36921514
C       3.99240968     -0.57364889     -1.16105488
C       3.50073077     -1.85401373     -0.48540362
C       2.97619548     -1.64936359      0.93875556
N       1.92095968     -0.65766014      1.03329469
C       0.65792533     -0.93709010      0.56267606
O       0.35513388     -1.96346303     -0.02467693
N      -0.19253134      0.10384587      0.84426961
C      -1.59473615      0.15305434      0.41378462
C      -1.71859665      0.17403761     -1.12967853
C      -3.19402646      0.28847866     -1.55205436
C      -3.97744905     -0.90879381     -0.98735649
C      -3.89353562     -0.91999137      0.54860536
C      -4.48094986      0.38886343      1.09841796
C      -3.69572180      1.58789963      0.54543409
C      -3.78432403      1.59107369     -0.98889036
C      -2.22259101      1.46213710      0.96517673
C      -2.41871806     -1.03487511      0.97383413
H       7.50304784      1.31854263     -0.65823082
H       6.70447937      2.88008935     -0.93214050
H       6.47279618      2.05603027      0.62296873
H       4.26997774     -0.80307157     -2.19621978
H       3.19394520      0.17589687     -1.17913185
H       2.71019539     -2.28663140     -1.10959770
H       4.31163740     -2.59212529     -0.45538874
H       2.59172553     -2.59880671      1.32914478
H       3.77863764     -1.32338703      1.60728842
H       1.90499732     -0.12243544      1.88992962
H       0.28652266      0.99226389      0.87218062
H      -1.14587792      1.01477248     -1.54273803
H      -1.28890999     -0.73438951     -1.56851421
H      -3.26486826      0.29381268     -2.64549899
H      -5.02625828     -0.85167208     -1.30371777
H      -3.57371550     -1.84516969     -1.39169092
H      -4.45832600     -1.77205224      0.94320790
H      -5.53845841      0.47196324      0.81910868
H      -4.44037251      0.38687519      2.19459022
H      -4.11540438      2.51917293      0.94187405
H      -3.24233511      2.45432557     -1.39423082
H      -4.82997758      1.69537596     -1.30354789
H      -1.66137244      2.33304936      0.60058157
H      -2.14498183      1.48554155      2.06045680
H      -2.34609375     -1.06109448      2.06902242
H      -2.02371760     -1.99298795      0.61768808
