24
O=C([O-])[O-].O=C([O-])[O-].O=C([O-])[O-].[NH4+].[NH4+].[Zn+2].[Zn+2]
O      -0.06097334      1.29152355     -0.00302037
C       0.00613038      0.04570122      0.00036723
O       1.21976243     -0.62715150      0.06954977
O      -1.16491947     -0.71007326     -0.06689663
O      -0.08040647      1.29468711     -0.04588301
C      -0.00636651      0.02771614     -0.00094731
O       1.25630435     -0.59835530      0.01191701
O      -1.16953138     -0.72404795      0.03491332
O       0.01306834      1.28943190     -0.06559734
C      -0.01515416      0.04718991     -0.00350323
O      -1.18155886     -0.67409671     -0.04855940
O       1.18364467     -0.66252510      0.11765996
N       0.00470397     -0.00816269     -0.01399177
N       0.00436995      0.01178420     -0.00401337
Zn      0.00000000      0.00000000      0.00000000
Zn      0.00000000      0.00000000      0.00000000
H       0.36275774     -0.03282286      0.95635589
H      -0.41653769      0.94023517     -0.17941149
H       0.81275901     -0.19592564     -0.64346695
H      -0.76368303     -0.70332397     -0.11948567
H      -0.25828776     -0.56373309     -0.82687939
H      -0.53689400      0.91005641      0.01679314
H      -0.24671668     -0.54718571      0.84535732
H       1.03752850      0.18907819     -0.03125770
