15
O=C1CCCCO1
O      -2.02085050      1.87326809      0.87520769
C      -1.09282861      1.12395345      0.58404757
C      -1.34014228     -0.31264273      0.20130789
C      -0.26002202     -0.91875470     -0.66995586
C       1.09425887     -0.63969133     -0.05415404
C       1.27698914      0.85996947      0.04681545
O       0.19189924      1.52651064      0.71320699
H      -2.29671740     -0.36737876     -0.33026223
H      -1.43757368     -0.88379342      1.13186505
H      -0.30668031     -0.48929326     -1.67822626
H      -0.41888689     -1.99810109     -0.76847708
H       1.89401325     -1.08139079     -0.65748733
H       1.14200918     -1.08940511      0.94486392
H       1.38391194      1.31231825     -0.94558553
H       2.19062005      1.08443129      0.60683378
