14
Nc1ccccc1Cl
N       2.29511406     -0.29213120     -0.06013855
C       0.90293471     -0.10881635      0.03479344
C       0.08811423     -1.21514552      0.30190507
C      -1.30517433     -1.09999990      0.28638962
C      -1.90387334      0.11682037     -0.03376623
C      -1.10956716      1.21687513     -0.35315669
C       0.28283248      1.09819232     -0.33721253
Cl      1.23068126      2.48504739     -0.75271653
H       2.66438668     -1.00238579      0.56289247
H       2.80678143      0.58665077     -0.00782547
H       0.53478658     -2.18179517      0.52061451
H      -1.92194389     -1.96695517      0.51073570
H      -2.98732084      0.20388926     -0.05048103
H      -1.57775189      2.15975386     -0.62203376
