26
CC(C)COC(=O)C(C)C
C      -3.56818393      0.97400634     -0.43624917
C      -2.31619116      0.10956078     -0.56781910
C      -2.48941385     -1.19938312      0.20593005
C      -1.07998646      0.88104296     -0.08919750
O       0.09008814      0.08968225     -0.33918358
C       1.25486068      0.65703006      0.08616716
O       1.34371051      1.74861793      0.63066246
C       2.41823260     -0.27140504     -0.21139292
C       3.74206366      0.48709971     -0.16593942
C       2.42047384     -1.43013904      0.77898181
H      -4.45051249      0.43970574     -0.80411079
H      -3.75140366      1.25277913      0.60706857
H      -3.46807703      1.89472026     -1.02063572
H      -2.17731980     -0.15023843     -1.62505453
H      -2.60895477     -1.01298160      1.27864994
H      -3.37445341     -1.74170220     -0.14362555
H      -1.62451125     -1.85692922      0.07058475
H      -0.99351998      1.82483167     -0.64101166
H      -1.15708480      1.09620595      0.98379342
H       2.28861774     -0.65451493     -1.23120022
H       3.93917474      0.89016555      0.83370862
H       4.57570182     -0.16875495     -0.43781218
H       3.73207769      1.32963976     -0.86604856
H       2.51840820     -1.07102710      1.80955861
H       3.24858767     -2.11687531      0.57546755
H       1.48761528     -2.00113715      0.71870798
