50
CC(=O)NC(C)c1ccc(Nc2ncc3cc(-c4ccncc4)ccc3n2)cc1
C      -6.52246667      1.99313570      4.37421545
C      -6.76412216      1.35979059      3.03033761
O      -7.89512025      1.11760370      2.62190690
N      -5.62184223      1.08951548      2.31893615
C      -5.65811033      0.49611791      0.99262192
C      -6.04672548      1.53016015     -0.06872294
C      -4.32598056     -0.17405418      0.70812353
C      -4.20456833     -1.56211775      0.84194417
C      -2.97881555     -2.19838603      0.61269030
C      -1.83289625     -1.47556223      0.24842352
N      -0.63874523     -2.17349205      0.04641524
C       0.65832650     -1.80138419     -0.29338615
N       1.51417021     -2.82591651     -0.43720989
C       2.78431433     -2.52130755     -0.76396138
C       3.24370236     -1.23063859     -0.95313690
C       4.57547072     -0.91050415     -1.29507350
C       4.96880239      0.42252626     -1.47527224
C       6.35236699      0.76731786     -1.83364365
C       7.43304204      0.32219237     -1.06304983
C       8.71974202      0.67385058     -1.44109571
N       9.00437335      1.42645983     -2.52312950
C       7.95533909      1.84894517     -3.25766811
C       6.63469691      1.55230400     -2.95783523
C       3.99478941      1.41437958     -1.30265565
C       2.67701154      1.07908482     -0.96071097
C       2.28102086     -0.23863300     -0.78164590
N       1.01200149     -0.51758497     -0.45633892
C      -1.95755062     -0.08936830      0.13456672
C      -3.18140018      0.55527860      0.36214153
H      -6.93983094      3.00356116      4.37223751
H      -5.45670258      2.05449502      4.61065303
H      -7.01250066      1.39182051      5.14485763
H      -4.71942150      1.33963245      2.70036387
H      -6.44577494     -0.26892036      0.99402489
H      -6.01706454      1.09329761     -1.07286996
H      -7.06223898      1.90276355      0.10440280
H      -5.38303935      2.40156985     -0.05605389
H      -5.06433609     -2.16411641      1.13014636
H      -2.92943650     -3.27892853      0.72694424
H      -0.68152741     -3.18036363      0.10256992
H       3.44227624     -3.37903869     -0.87203808
H       5.30077714     -1.71075826     -1.43306097
H       7.28227433     -0.27842974     -0.17183075
H       9.58064536      0.35013400     -0.86295920
H       8.20995292      2.45151283     -4.12501226
H       5.84314738      1.92088724     -3.60253274
H       4.25234954      2.46568532     -1.41994608
H       1.94274544      1.87094306     -0.82937134
H      -1.10451159      0.52570398     -0.13510185
H      -3.21860968      1.63781681      0.26679027
