42
CNC[C@H](O)c1ccc(O)c(O)c1.O=C(O)[C@H](O)[C@@H](O)C(=O)O
C      -4.05243031     -0.64315036      1.25225393
N      -3.22656868      0.25133366      0.45465566
C      -1.80521089     -0.13508357      0.52839763
C      -0.95573351      0.70466880     -0.45364962
O      -1.40202503      0.46061738     -1.79570087
C       0.51929327      0.37667221     -0.34455507
C       1.05485539     -0.78201859     -0.94114167
C       2.41392201     -1.09042263     -0.82270534
C       3.23874115     -0.24044014     -0.09811647
O       4.57459041     -0.48698441      0.05725375
C       2.71734630      0.90312255      0.50129156
O       3.53357176      1.72894266      1.21962326
C       1.37047320      1.21908559      0.38639394
O      -1.46209601      2.30886695     -0.78917922
C      -1.19776340      1.11987013     -0.68214414
O      -1.61167657      0.23792857     -1.60666157
C      -0.47261057      0.49258614      0.50060059
O       0.12705129      1.51138230      1.32853747
C       0.63174324     -0.46028172      0.02902040
O       1.93619013     -0.02179400      0.48725600
C       0.38643462     -1.84987776      0.60526639
O      -0.68575701     -2.43392963      0.61058010
O       1.52772402     -2.38674339      1.11250958
H      -3.77040278     -0.60253838      2.30904767
H      -5.09920412     -0.33439327      1.17943305
H      -3.98203729     -1.67773653      0.90043895
H      -3.50474157      0.19147228     -0.52817249
H      -1.70864783     -1.19733717      0.26704926
H      -1.43789932      0.00022510      1.55334182
H      -1.11289028      1.77331104     -0.26039152
H      -0.76264465      0.90730680     -2.37805293
H       0.40569482     -1.45091312     -1.50491523
H       2.79949486     -1.98702666     -1.29678784
H       4.78603065     -1.31078656     -0.41531469
H       4.41431133      1.30724169      1.16587059
H       0.99211110      2.11483163      0.87189828
H      -2.10732457      0.76890311     -2.26717852
H      -1.23785914     -0.00140431      1.10908397
H      -0.51773629      2.24783020      1.36214879
H       0.69636141     -0.56751323     -1.05823074
H       1.74502865      0.74426966      1.07891486
H       2.24229020     -1.71009304      1.00925293
