50
CC1CN(c2c(F)c(N)c3c(=O)c(C(=O)O)cn(C4CC4)c3c2F)CC(C)N1
C       4.19385640      1.29975120      2.26597159
C       3.64047390      0.15052768      1.42492111
C       2.32430800      0.58342733      0.71927049
N       1.83045068     -0.49927674     -0.16611337
C       0.50530880     -0.32496778     -0.62067054
C       0.13912747     -0.23790340     -1.97407464
F       1.08524432     -0.25438864     -2.93103951
C      -1.19686263     -0.12710234     -2.40828488
N      -1.43744596      0.11522257     -3.77861120
C      -2.21283036     -0.03673908     -1.43634140
C      -3.64611289      0.04028220     -1.85143607
O      -3.99151447      0.00402157     -3.03345931
C      -4.68966026      0.10829872     -0.80815003
C      -6.13941883      0.16905242     -1.09049971
O      -6.99240498      0.22544114     -0.21606586
O      -6.45790388      0.15790570     -2.40238862
C      -4.27791603      0.09967630      0.46575782
N      -2.96652495      0.05565416      0.89502162
C      -2.71271753      0.08459347      2.35042777
C      -2.01087425      1.25408854      2.99979736
C      -3.45307165      1.00104342      3.29757316
C      -1.90974429     -0.08116383     -0.05828110
C      -0.55775040     -0.25859801      0.30905964
F      -0.25386832     -0.42560051      1.60891815
C       2.85486459     -0.96907223     -1.12310300
C       4.15062792     -1.38086962     -0.36954701
C       5.22961626     -1.80954124     -1.36384586
N       4.69079444     -0.29026065      0.47651733
H       4.44091950      2.16940559      1.64669242
H       3.46113027      1.61766009      3.01531616
H       5.10125710      0.99408929      2.79862001
H       3.41801919     -0.68622816      2.10048074
H       1.59602199      0.84956779      1.49259358
H       2.50068691      1.48567289      0.11786949
H      -2.39978948     -0.07510242     -4.07120718
H      -0.73379776     -0.27630902     -4.40098531
H      -5.67639571      0.11019908     -3.00513917
H      -5.00631764      0.13214584      1.27470557
H      -2.47712408     -0.90650361      2.73522966
H      -1.28039995      1.03306719      3.76925782
H      -1.76363150      2.11152351      2.38511021
H      -4.17012649      1.71215102      2.90510228
H      -3.71046337      0.60976492      4.27481430
H       2.48400860     -1.84290660     -1.67372921
H       3.09463237     -0.17353776     -1.84106597
H       3.92666131     -2.23916871      0.27823395
H       5.50428719     -0.99009928     -2.03837296
H       6.13558578     -2.13752781     -0.84234221
H       4.87909734     -2.64729075     -1.97709029
H       4.93768733      0.49592454     -0.12541786
