55
COCCNC(C)c1ccc(Nc2ncc3cc(-c4ccncc4)ccc3n2)cc1
C      -6.10999229     -3.54094534      0.10336159
O      -5.63052653     -2.21987723     -0.10395612
C      -6.70552822     -1.27514203     -0.16265210
C      -6.13460130      0.13123434     -0.40160730
N      -5.45931133      0.18355087     -1.70470276
C      -4.72890575      1.42928719     -1.98381809
C      -5.65857791      2.64934534     -2.03030303
C      -3.48749108      1.59337606     -1.11797386
C      -2.33363056      0.85910758     -1.43094128
C      -1.16844446      0.97043031     -0.66001856
C      -1.11524304      1.80749062      0.45507018
N       0.01768225      1.97425752      1.25689089
C       1.30997828      1.45931927      1.23020719
N       2.08470739      1.83990879      2.25904573
C       3.34718050      1.37261744      2.27976660
C       3.87774435      0.53985061      1.31139326
C       5.20203244      0.05099180      1.33174726
C       5.67141999     -0.79215119      0.31515446
C       7.04838189     -1.30849743      0.32747438
C       7.30835116     -2.68047852      0.22795494
C       8.62272294     -3.12067079      0.24835132
N       9.68696317     -2.29992903      0.35683390
C       9.42446570     -0.98051727      0.44826415
C       8.14528924     -0.44601369      0.43989701
C       4.77945894     -1.12565463     -0.71235090
C       3.46763037     -0.63054156     -0.71772650
C       2.99711900      0.20377123      0.28610995
N       1.73694841      0.65492619      0.24525161
C      -2.27124056      2.53839253      0.76696703
C      -3.43898581      2.43321794     -0.00050216
H      -5.25166842     -4.21718523      0.14106791
H      -6.64883451     -3.60786605      1.05324503
H      -6.75977877     -3.84667546     -0.72226327
H      -7.24873588     -1.28829340      0.78921469
H      -7.39680313     -1.54939463     -0.96866523
H      -6.95808041      0.85094487     -0.36642559
H      -5.43122883      0.35520680      0.40682995
H      -4.79969999     -0.59891775     -1.72793362
H      -4.36053060      1.32790496     -3.01472855
H      -6.11508667      2.87530094     -1.06145509
H      -5.10754306      3.54125920     -2.35046115
H      -6.46997012      2.48840413     -2.74934190
H      -2.32921953      0.18708464     -2.28689155
H      -0.30822920      0.37832610     -0.95531474
H      -0.08563728      2.54759852      2.08065471
H       3.93794449      1.70225784      3.12970848
H       5.86064858      0.32296516      2.15485120
H       6.50283565     -3.40329401      0.14786545
H       8.85916479     -4.17858941      0.17758091
H      10.29756415     -0.33953816      0.52945514
H       8.01420595      0.62919570      0.50646563
H       5.09793623     -1.76706170     -1.53242363
H       2.79806200     -0.90319704     -1.53075310
H      -2.27737744      3.20776304      1.62414932
H      -4.30553515      3.01514400      0.29993520
