34
Nc1ccc(S(=O)(=O)Nc2ccc(S(N)(=O)=O)cc2)cc1
N       4.01725529      2.06495209     -1.31068274
C       3.44089925      1.13364467     -0.44063880
C       2.41834057      1.52443419      0.43010196
C       1.74946123      0.58288162      1.21599805
C       2.06713398     -0.77016404      1.08406822
S       1.21573190     -1.98148412      2.06908409
O       0.64948926     -1.31143166      3.21983081
O       2.10146867     -3.11690014      2.22289439
N      -0.02841428     -2.49612780      1.04563882
C      -0.91924900     -1.53411566      0.49625390
C      -0.89301659     -1.29284781     -0.87967779
C      -1.73105806     -0.32291750     -1.43509258
C      -2.59873450      0.39417737     -0.60649617
S      -3.63921405      1.64968384     -1.29382395
N      -5.10059725      0.83956417     -1.45138218
O      -3.85285497      2.67819023     -0.30339901
O      -3.20516966      1.94491759     -2.63915314
C      -2.62237844      0.16190245      0.77163449
C      -1.78182275     -0.80872982      1.32025516
C       3.05896350     -1.18255365      0.19181703
C       3.72274304     -0.22903487     -0.58424804
H       4.00670933      3.01838403     -0.96074602
H       4.93193867      1.79555984     -1.65940443
H       2.13595523      2.57170913      0.50695004
H       0.97527495      0.91069817      1.90602685
H       0.26911774     -3.26701721      0.45016520
H      -0.21323335     -1.83883993     -1.52835311
H      -1.69597457     -0.12966164     -2.50525757
H      -5.80731296      1.28165693     -0.86264158
H      -5.36215200      0.78646864     -2.43637368
H      -3.28582641      0.72903060      1.42103811
H      -1.80800884     -0.99373030      2.39217538
H       3.31496097     -2.23396956      0.08637188
H       4.46957409     -0.55832986     -1.30256603
