36
O=[N+]([O-])c1cccc(OC2OC(CO)C(O)C(O)C2O)c1
O       4.22823909      0.62381581      3.51621956
N       4.64300138     -0.12406389      2.61941287
O       5.71674379     -0.74157659      2.66010512
C       3.80920199     -0.28379020      1.42264744
C       4.26819126     -1.06494760      0.35640646
C       3.46933598     -1.20571951     -0.77747741
C       2.22370802     -0.57175538     -0.84693944
C       1.76456930      0.20694620      0.21793805
O       0.57246574      0.87236709      0.27746822
C      -0.32470307      0.77464214     -0.83657445
O      -0.82113007     -0.55877770     -1.03357127
C      -1.93807225     -0.85962887     -0.17990301
C      -2.21609782     -2.36194973     -0.28165748
O      -1.05873351     -3.09622616      0.12332397
C      -3.16652566     -0.03615292     -0.60010059
O      -3.96922533      0.22610249      0.55759991
C      -2.74573111      1.29234996     -1.24653511
O      -3.80325453      2.25249232     -1.09052899
C      -1.45990367      1.80446563     -0.60181235
O      -1.13761427      3.08965842     -1.16265216
C       2.56203008      0.35082577      1.35679334
H       5.23358912     -1.56572861      0.39351329
H       3.81452579     -1.81368779     -1.61157106
H       1.63500436     -0.71620706     -1.74830820
H       0.21426351      1.06621636     -1.74712142
H      -1.64634418     -0.64393970      0.85704293
H      -3.05244849     -2.65887619      0.35782788
H      -2.43633925     -2.65284378     -1.31405207
H      -0.29994740     -2.65979189     -0.30788599
H      -3.80239490     -0.58332308     -1.30541774
H      -4.50446597      1.01402974      0.31847738
H      -2.58826785      1.15927918     -2.32399117
H      -3.40021369      3.11281055     -1.33022206
H      -1.62339125      1.97941842      0.46915559
H      -0.35767229      3.41822276     -0.67586435
H       2.19760719      0.95534379      2.18527553
