22
CCCCC(N)C(=O)O
C      -2.35601583     -0.01929582      1.28795253
C      -1.95997237      0.23515678     -0.15792437
C      -0.96163814     -0.78590995     -0.70775329
C       0.36862727     -0.89944910      0.04986444
C       1.15436516      0.40687231      0.21064389
N       2.29654588      0.18602618      1.15948160
C       1.74614479      0.92418620     -1.11834196
O       1.15904074      1.00825451     -2.18374885
O       3.03744554      1.32035130     -0.94980470
H      -3.13981102      0.68206885      1.59162849
H      -2.74258726     -1.03524066      1.41630590
H      -1.50861698      0.11733148      1.96618635
H      -1.56178583      1.25069059     -0.25694379
H      -2.86434652      0.19902257     -0.77754741
H      -1.43669731     -1.77555325     -0.70683173
H      -0.76884669     -0.55297524     -1.76063400
H       0.98973256     -1.63742324     -0.47562458
H       0.16337298     -1.32651586      1.04004367
H       0.54220671      1.21108801      0.62918518
H       1.89835565      0.08033197      2.09788321
H       2.70113280     -0.73639322      0.96030158
H       3.24334786      1.14737559      0.00389344
