25
CCOC(=O)/C=C/c1ccccc1
C       4.96607461     -1.00611720      0.28691366
C       4.05693161      0.20613728      0.23244010
O       2.70418780     -0.25342902      0.12961430
C       1.78724833      0.74455184      0.07307672
O       2.01357389      1.94260462      0.10016367
C       0.44964079      0.12746028     -0.02979197
C      -0.64103207      0.90439368     -0.11100832
C      -2.01314653      0.38741266     -0.20087987
C      -2.33589611     -0.76735248     -0.92620072
C      -3.65947142     -1.20878087     -1.00799123
C      -4.67459763     -0.49521846     -0.37464274
C      -4.36875259      0.66320167      0.33575088
C      -3.04579054      1.10511592      0.41711912
H       4.71419125     -1.63862038      1.14458433
H       6.01424533     -0.70453793      0.36604383
H       4.84180832     -1.62176186     -0.61010605
H       4.30760990      0.81737536     -0.64185976
H       4.17763099      0.80022203      1.14531985
H       0.40407759     -0.95405857     -0.02059427
H      -0.54255518      1.98891104     -0.08885431
H      -1.56657778     -1.33125934     -1.44746807
H      -3.89763121     -2.10682187     -1.57219981
H      -5.70390033     -0.83816879     -0.43978564
H      -5.15931161      1.22560307      0.82580559
H      -2.82855743      2.01313734      0.97579045
