14
Oc1ccccc1O
O      -2.20644585     -0.78209595      0.02861605
C      -0.88979652     -0.41231822      0.00310557
C       0.13317482     -1.34528623     -0.12286027
C       1.45871259     -0.90239034     -0.14239193
C       1.74989288      0.46193407     -0.03646739
C       0.71713561      1.39205172      0.08967337
C      -0.59602728      0.94552370      0.10835215
O      -1.60809427      1.85408447      0.23172106
H      -2.24760844     -1.75023673     -0.05379223
H      -0.07484561     -2.40678331     -0.20608677
H       2.26963768     -1.62021513     -0.24035045
H       2.78282530      0.80052514     -0.05225426
H       0.93369676      2.45251780      0.17243243
H      -2.42225768      1.31268900      0.22030268
