62
C#CC1(OC(=O)C(C)(C)C)CCC2C3CCC4=CC(=O)CCC4C3CCC21C
C       3.79037080      3.42335780     -0.71017324
C       3.06119413      2.60770326     -0.21346611
C       2.17445521      1.60060606      0.40224331
O       2.79321764      0.28473499      0.42611126
C       3.35755246     -0.25446657     -0.68831471
O       3.36746570      0.25760195     -1.79883211
C       3.96052401     -1.62559330     -0.36560881
C       4.62208249     -2.20559067     -1.62597729
C       5.02348417     -1.47543166      0.73141198
C       2.84427470     -2.57324798      0.09537534
C       1.98121883      1.95197435      1.91270623
C       0.55253723      1.52449445      2.29495087
C       0.00849872      0.83012823      1.05190166
C      -1.51384746      0.72598768      0.89750193
C      -2.16223675      0.00636311      2.08794683
C      -3.67634717     -0.05775119      1.92063489
C      -4.08259028     -0.67400045      0.60494849
C      -5.04197116     -1.61506193      0.57136196
C      -5.57748028     -2.11728575     -0.71479867
O      -6.39758689     -3.03128784     -0.71574523
C      -5.15735269     -1.40225722     -1.97209640
C      -3.69528382     -0.99698623     -1.88333748
C      -3.38512903     -0.13679978     -0.63921487
C      -1.84509418     -0.03369642     -0.41863352
C      -1.11192719      0.58265767     -1.63427024
C       0.39681990      0.77127718     -1.39601007
C       0.69582228      1.57716659     -0.11968371
C       0.16682707      3.02991360     -0.30949160
H       4.43978261      4.13533411     -1.16468226
H       3.89389371     -2.32857808     -2.43641453
H       5.06777684     -3.18647276     -1.42582163
H       5.41586853     -1.54640083     -1.99691382
H       5.79505367     -0.75493129      0.43610217
H       5.51542480     -2.43187403      0.94032971
H       4.58753307     -1.11701818      1.67087176
H       3.23020980     -3.58241674      0.27691997
H       2.05148262     -2.64383440     -0.65848623
H       2.37732505     -2.22575280      1.02412063
H       2.71195835      1.43193098      2.54428337
H       2.09165665      3.02592594      2.10869227
H      -0.04743431      2.40211735      2.56119887
H       0.55982501      0.85574594      3.16198806
H       0.39023661     -0.20325962      1.08170914
H      -1.94699418      1.73272946      0.84991869
H      -1.75439112     -1.00791661      2.18596722
H      -1.93582903      0.53352271      3.02171984
H      -4.08879628      0.95831242      1.96744231
H      -4.10373244     -0.60809317      2.76755205
H      -5.52440073     -2.00303991      1.46163919
H      -5.29734033     -2.07642442     -2.82376358
H      -5.80446326     -0.52954203     -2.11092034
H      -3.43108891     -0.44937115     -2.79525066
H      -3.07846736     -1.90589244     -1.86619710
H      -3.77958434      0.87393255     -0.81565417
H      -1.45791718     -1.05877307     -0.30775703
H      -1.22447675     -0.07032229     -2.50732723
H      -1.57560939      1.53722713     -1.90646874
H       0.83163502     -0.23157245     -1.32886837
H       0.84561766      1.25652287     -2.27060912
H       0.63672334      3.49986154     -1.18120177
H       0.37064363      3.67016820      0.55439096
H      -0.91161982      3.07364512     -0.47942484
