20
Cc1ccc(C(=O)O)cc1[N+](=O)[O-]
C      -2.65073208     -1.06504413     -0.13487375
C      -1.20516489     -0.65151139     -0.12010541
C      -0.22595963     -1.58465783     -0.49294997
C       1.13007843     -1.23885741     -0.49543724
C       1.53820781      0.04706450     -0.11966616
C       2.98767101      0.35869867     -0.14334972
O       3.87400732     -0.40252669     -0.48159920
O       3.25286991      1.61166003      0.26287832
C       0.58272043      0.99034386      0.26693430
C      -0.77331635      0.63040682      0.27193973
N      -1.72903662      1.64553520      0.70047290
O      -1.64352892      2.75937394      0.16603435
O      -2.54348301      1.33077354      1.57795022
H      -2.79437276     -1.97974534     -0.72052649
H      -3.27350559     -0.29356572     -0.59897530
H      -3.00047634     -1.25915774      0.88364003
H      -0.50978709     -2.59350889     -0.79074157
H       1.86951189     -1.98143903     -0.79417392
H       4.22890627      1.68380897      0.19747104
H       0.88539020      1.99234862      0.56507782
