34
CC(=O)/C=C/C1=C(C)CCCC1(C)C
C       3.81124488     -2.74355157      0.09396008
C       3.30957900     -1.32506125      0.14833395
O       4.07520715     -0.38390859      0.34407392
C       1.85291114     -1.11527012     -0.07096785
C       1.33327725      0.12118662     -0.04865403
C      -0.08818750      0.39515726     -0.23396438
C      -0.70572851      0.17846081     -1.42143754
C      -0.01179821     -0.26076462     -2.68985222
C      -2.19239002      0.38742453     -1.61552402
C      -2.97728864      0.55981437     -0.32195466
C      -2.23428452      1.48634515      0.62706638
C      -0.83130324      0.93991704      1.00632678
C      -0.99048186     -0.19572464      2.04262230
C      -0.07329748      2.10706935      1.68081972
H       4.31083513     -2.91318591     -0.86309745
H       2.99222713     -3.45937297      0.20453688
H       4.51340765     -2.90708484      0.91630709
H       1.23732255     -1.98911790     -0.24519819
H       1.97191967      0.98142321      0.14682537
H       1.07861976     -0.21399052     -2.63338195
H      -0.30669247      0.38806222     -3.52212675
H      -0.29731430     -1.28839015     -2.93714325
H      -2.33482217      1.27599097     -2.24392633
H      -2.61740247     -0.46227481     -2.16383326
H      -3.14473950     -0.41591282      0.14850053
H      -3.96816384      0.97091045     -0.54724018
H      -2.13591874      2.46978800      0.14640968
H      -2.83980540      1.64560201      1.52831093
H      -1.59299006      0.13200108      2.89766578
H      -1.47695125     -1.07730334      1.61107349
H      -0.02082506     -0.51978191      2.43814261
H      -0.66821325      2.54443408      2.49150432
H       0.14717785      2.90518566      0.96238574
H       0.87486930      1.78192313      2.12343653
