29
CC(=O)C1CC(CC(=O)O)C1(C)C
C      -3.04530817     -1.54225585      0.48843108
C      -2.59729849     -0.30061378     -0.24102491
O      -3.39181563      0.63801324     -0.38356557
C      -1.14603421     -0.25389035     -0.77730184
C      -0.06137520     -1.18566466     -0.17365459
C       0.97538306     -0.06257475     -0.43275601
C       2.12738504      0.06309820      0.55967493
C       3.13523344     -1.04749751      0.45413128
O       3.08192990     -2.02463601     -0.27224155
O       4.17270225     -0.87014580      1.29444604
C      -0.22440361      0.95507800     -0.35906102
C      -0.51544694      1.55670693      1.01985247
C      -0.14552527      2.05442402     -1.41852867
H      -2.80677665     -2.42523003     -0.10963485
H      -2.55309189     -1.59551729      1.46196055
H      -4.12815026     -1.51032351      0.63920093
H      -1.17751991     -0.37726677     -1.87263253
H      -0.20062652     -1.43176948      0.88509566
H       0.11224548     -2.11522771     -0.72372512
H       1.38370428     -0.12926191     -1.45414968
H       1.75231871      0.06723661      1.58881420
H       2.65265690      1.00744971      0.37681500
H       4.74914620     -1.64631795      1.13235367
H      -1.44791377      2.13125512      1.00830188
H       0.28658534      2.23793936      1.32435968
H      -0.61166455      0.78760202      1.79310529
H      -1.08743077      2.61067001     -1.47446896
H       0.05589168      1.64462565     -2.41422568
H       0.65519956      2.76409447     -1.18412914
