28
Cc1cc(=O)n(O)c2ccc3ccccc3c12
C      -0.22163980     -2.73275590      0.77858617
C       0.77004960     -1.62390488      0.58020731
C       2.06507130     -1.93590078      0.78026990
C       3.16599535     -1.00267533      0.50017300
O       4.33183480     -1.30371756      0.74647082
N       2.79411503      0.17688482     -0.07502298
O       3.83662421      1.08411056     -0.38263485
C       1.46786712      0.59578426     -0.29002275
C       1.24163346      1.84843231     -0.86371294
C      -0.05115014      2.30643609     -1.05719030
C      -1.14503613      1.54727751     -0.64490538
C      -2.42529849      2.09559268     -0.83615114
C      -3.56752713      1.42675271     -0.41722393
C      -3.43561679      0.20466283      0.21329007
C      -2.16372762     -0.35227010      0.40208781
C      -0.96129380      0.26868294     -0.03868538
C       0.38623733     -0.24861023      0.09257318
H      -0.76890641     -2.60394755      1.71699925
H       0.26845983     -3.71234758      0.84479473
H      -0.91070961     -2.80863223     -0.06829840
H       2.38502763     -2.91356678      1.12404939
H       4.62011318      0.59397587     -0.05542340
H       2.07210761      2.48048624     -1.16875195
H      -0.18967664      3.28426254     -1.51490874
H      -2.54431244      3.06784893     -1.31189536
H      -4.54890612      1.86716152     -0.56819313
H      -4.31660015     -0.32237410      0.57119548
H      -2.15473520     -1.28764879      0.94232350
