23
N.O=C([O-])CC(O)(CC(=O)[O-])C(=O)[O-].[Fe+3]
N       0.00712470      0.00766565      0.29540973
O       2.16862480     -1.90826864      0.59828497
C       2.35155796     -1.03981807     -0.30610903
O       3.27029727     -1.05576374     -1.19070301
C       1.49994722      0.23569929     -0.25481490
C      -0.04481693      0.25577471     -0.31682234
O      -0.45592524     -0.21846695     -1.62934582
C      -0.73907671     -0.59834388      0.75303636
C      -2.27585855     -0.57909708      0.76882035
O      -2.82112055     -0.90842156      1.87138165
O      -2.86299823     -0.33554283     -0.33017249
C      -0.42880222      1.80166431     -0.13974838
O      -0.75506731      2.43696907     -1.19601663
O      -0.31362619      2.29126602      1.03052825
Fe      0.00000000      0.00000000      0.00000000
H      -0.48084632     -0.81065958     -0.06595995
H      -0.46326945      0.81628406     -0.10860274
H       0.93699107     -0.01329013     -0.12084703
H       1.86651539      0.87514728     -1.07214011
H       1.82137716      0.73663117      0.66995761
H      -1.42348631     -0.02347267     -1.60636624
H      -0.47574639     -1.65243791      0.59986752
H      -0.38179516     -0.31351852      1.75036223
