75
C[C@H](CCC(=O)NCC(=O)O)[C@H]1CC[C@H]2[C@H]3[C@H](CC[C@@]21C)[C@@]1(C)CC[C@@H](O)C[C@H]1C[C@H]3O
C       2.67000157      2.06990260     -0.15780210
C       2.77470489      0.59388223      0.23908215
C       3.97181120     -0.06905435     -0.49474136
C       5.34070983      0.47735921     -0.07896830
C       6.47912290     -0.27468080     -0.74457360
O       6.32571239     -1.14154104     -1.59726352
N       7.71791641      0.12825464     -0.30861168
C       8.93274309     -0.45809352     -0.84836799
C      10.14468487      0.11745029     -0.14278404
O      10.13111129      0.94686922      0.75581502
O      11.30817043     -0.37971734     -0.60503066
C       1.46217465     -0.19209056     -0.05897323
C       1.54878388     -1.67067933      0.42691196
C       0.13070197     -2.10980014      0.81118133
C      -0.74976973     -0.97753973      0.30673428
C      -2.18087250     -0.87480924      0.85941378
C      -2.90527551      0.31921828      0.15797501
C      -2.05927813      1.61647671      0.23376557
C      -0.59573984      1.43478086     -0.20764436
C       0.10692156      0.29313320      0.54808484
C       0.27122257      0.65918293      2.04292557
C      -4.38545852      0.49168283      0.67095405
C      -4.41759412      0.86200105      2.17848490
C      -5.14457388      1.63724806     -0.06134282
C      -5.43482259      1.35192048     -1.52802945
C      -6.23614297      0.06556963     -1.67937440
O      -6.41060499     -0.22300100     -3.06216560
C      -5.51633138     -1.10927249     -1.02575012
C      -5.16687400     -0.84550207      0.45345688
C      -4.44967119     -2.05564821      1.08435194
C      -2.96637453     -2.19640727      0.73081026
O      -2.82849332     -2.79461786     -0.55352645
H       1.95375504      2.60196934      0.47059979
H       3.61806566      2.59803358     -0.02642265
H       2.36550441      2.17889119     -1.20399830
H       2.97633212      0.54684377      1.31681083
H       3.97699628     -1.14731933     -0.29983154
H       3.84525259      0.04369887     -1.57950424
H       5.44397786      1.53031536     -0.35982879
H       5.45922701      0.39303608      1.00773079
H       7.81005766      0.85124913      0.39836616
H       8.98156785     -0.22419929     -1.91620555
H       8.89551571     -1.54110418     -0.69686442
H      11.99735999      0.06549125     -0.06802620
H       1.34517694     -0.21915680     -1.15338608
H       1.94046097     -2.30909448     -0.37309661
H       2.21249699     -1.78053702      1.29203021
H      -0.12450344     -3.07009879      0.35159260
H       0.04743942     -2.23206394      1.89680262
H      -0.83697913     -1.12032531     -0.78299581
H      -2.11895276     -0.66281701      1.93182060
H      -2.95337094      0.07363356     -0.91112928
H      -2.49773870      2.38293654     -0.41455034
H      -2.07336065      2.02396839      1.24881466
H      -0.57867240      1.23514139     -1.28702665
H      -0.08019197      2.38784315     -0.06567376
H      -0.68498782      0.82616371      2.54552376
H       0.84661895      1.58262332      2.16075337
H       0.79529072     -0.11860243      2.60745167
H      -5.45059131      0.91023015      2.54480647
H      -3.89326846      0.14118496      2.80987140
H      -3.97234340      1.84526821      2.36129980
H      -6.10836994      1.80450050      0.44045886
H      -4.60700949      2.58716027      0.02711446
H      -5.99826180      2.18692460     -1.96278477
H      -4.50596394      1.29592038     -2.10777392
H      -7.23059728      0.18243268     -1.23346490
H      -6.88636256      0.52507483     -3.46135660
H      -4.62795574     -1.33865280     -1.61942375
H      -6.14935068     -2.00295508     -1.10450615
H      -6.13325807     -0.75502512      0.97184551
H      -4.53342040     -1.97214719      2.17526238
H      -4.98260417     -2.97427819      0.80798532
H      -2.53535924     -2.92297805      1.43043365
H      -2.81623820     -2.10165746     -1.23233516
