15
O=C(O)c1ccc(Cl)cc1
O      -2.81766810      1.10430393      0.24022480
C      -2.13740546      0.10362118      0.11164854
O      -2.69614128     -1.11576074      0.02098919
C      -0.65648614      0.06471647      0.03745442
C       0.04452250      1.27564546      0.12053177
C       1.44070214      1.28547284      0.05505446
C       2.13522479      0.08571334     -0.09334048
Cl      3.85341235      0.09766611     -0.17393270
C       1.44673851     -1.12415302     -0.17691173
C       0.04999148     -1.13641842     -0.11164166
H      -3.65849053     -0.93905584      0.08376173
H      -0.49402806      2.21470305      0.23644044
H       1.97685246      2.22885415      0.12025082
H       1.98886370     -2.05929928     -0.29261509
H      -0.47608836     -2.08600922     -0.17791449
