56
CCOC(=O)C(=Cc1ccc(C=C(C(=O)OCC)C(=O)OCC)cc1)C(=O)OCC
C       2.65801201      0.78104550      2.71019235
C       1.73187277      0.28363611      1.61848498
O       2.46788459     -0.50730969      0.67329305
C       3.01411312      0.17471578     -0.36676546
O       3.02849993      1.38636147     -0.52207670
C       3.59977094     -0.78207013     -1.32312400
C       2.81286868     -1.59636002     -2.05574123
C       1.34979079     -1.60904225     -1.97238169
C       0.70479405     -2.63957166     -1.28261190
C      -0.68076402     -2.60819074     -1.11053172
C      -1.42950607     -1.54688144     -1.62772471
C      -2.87360007     -1.49790055     -1.38976038
C      -3.48555568     -0.62048211     -0.56970385
C      -4.95775140     -0.68610210     -0.44722929
O      -5.67307109     -1.40941741     -1.12798752
O      -5.38824805      0.14411904      0.53506300
C      -6.80592117      0.17745941      0.75865610
C      -7.21279684     -0.92953871      1.71245660
C      -2.70645383      0.37166425      0.19203088
O      -1.94272565      0.09985443      1.10725416
O      -2.96827684      1.60931767     -0.30657623
C      -2.29212565      2.69312408      0.34777073
C      -3.09708039      3.15686601      1.54795306
C      -0.78815439     -0.53430438     -2.34834822
C       0.59741738     -0.56314143     -2.51705594
C       5.05974052     -0.83493812     -1.53572140
O       5.60551173     -1.48246668     -2.41944555
O       5.70024955     -0.09050358     -0.59836315
C       7.12713048     -0.06713643     -0.72693115
C       7.68515628      0.81156089      0.37725576
H       2.10306590      1.34639322      3.46407267
H       3.44101131      1.42333740      2.29663914
H       3.16104547     -0.05961577      3.19925170
H       0.96289527     -0.36340882      2.04763934
H       1.21285168      1.11400089      1.12585322
H       3.24151103     -2.30323161     -2.76268889
H       1.27660215     -3.45439092     -0.84238659
H      -1.16295918     -3.40199557     -0.54317972
H      -3.44971039     -2.24779558     -1.93190815
H      -7.03566812      1.15059242      1.20444806
H      -7.35823644      0.11605020     -0.18602909
H      -7.02467312     -1.91260140      1.27179650
H      -6.62967177     -0.87762045      2.63625303
H      -8.27536332     -0.85706353      1.96033978
H      -2.21162527      3.50711323     -0.37946397
H      -1.27122336      2.41316278      0.63328280
H      -4.11107286      3.44210156      1.24581549
H      -2.61699499      4.01248783      2.03036319
H      -3.20131418      2.35453182      2.28596449
H      -1.35476967      0.29376969     -2.76830899
H       1.08301051      0.24658507     -3.05731394
H       7.40301696      0.34559934     -1.70381078
H       7.52437014     -1.08409413     -0.62788775
H       7.27956704      1.82670703      0.30498290
H       7.39741284      0.42288377      1.35957271
H       8.77614068      0.86213432      0.32358028
