46
CCNC(=O)c1nnc2c(-c3cc(OC)ccc3OC)cccc2c1N
C      -5.76882568      2.01754678     -2.09329175
C      -5.30755768      0.58168608     -2.26468373
N      -4.02471270      0.35618024     -1.63899218
C      -3.88808288      0.07411649     -0.29222506
O      -4.84404795     -0.07276454      0.46489220
C      -2.47414384     -0.05673024      0.19178456
N      -1.53945143     -0.02326393     -0.78332783
N      -0.22137172     -0.16705348     -0.45212640
C       0.17917730     -0.31862086      0.82692809
C       1.54834166     -0.43527956      1.13929380
C       2.57572273     -0.43879659      0.07948725
C       3.33620557      0.72312750     -0.16178434
C       4.32073663      0.74471279     -1.15254462
O       5.11578666      1.81044834     -1.47388014
C       4.86786367      3.02938122     -0.78458442
C       4.56019305     -0.40686248     -1.90419441
C       3.81885043     -1.56768808     -1.68319287
C       2.81870620     -1.57778117     -0.70910399
O       2.10371242     -2.72061989     -0.44658923
C       1.40096602     -3.18669416     -1.59824959
C       1.96517623     -0.55051692      2.47769084
C       1.03815402     -0.54700540      3.50792496
C      -0.31611224     -0.44136137      3.20702060
C      -0.77561777     -0.34057858      1.87194439
C      -2.15428825     -0.25090439      1.54083176
N      -3.13774311     -0.17967406      2.56451171
H      -5.88898446      2.27091653     -1.03485603
H      -6.72962507      2.17201355     -2.59360256
H      -5.04161486      2.71516456     -2.52195327
H      -5.19821951      0.34348788     -3.32722872
H      -6.04431136     -0.10301723     -1.83163995
H      -3.17293050      0.49538725     -2.17602692
H       3.13240969      1.60202519      0.44223133
H       5.55771176      3.78209710     -1.17823481
H       3.84816062      3.38583822     -0.96449170
H       5.06743385      2.92319828      0.28678010
H       5.33575853     -0.40044937     -2.66627497
H       4.04054052     -2.45862751     -2.26202344
H       0.93236476     -2.36703498     -2.15492206
H       2.06775586     -3.76075612     -2.24919308
H       0.60728787     -3.85735042     -1.25538793
H       3.02400657     -0.64773769      2.71157496
H       1.36610007     -0.62856880      4.54110173
H      -1.01761965     -0.42657347      4.03794874
H      -4.09152364     -0.25811533      2.18433641
H      -2.99233840     -0.83690141      3.32339597
