24
Cc1cc2cccc(O)c2nc1C
C       2.66935572     -1.48573787      0.74293903
C       1.41300267     -0.75034968      0.38185597
C       0.17402523     -1.39614178      0.45898389
C      -1.00345772     -0.71666400      0.12364961
C      -2.27107952     -1.32821642      0.18702697
C      -3.42083127     -0.61432080     -0.15633668
C      -3.31336563      0.71088655     -0.56406839
C      -2.05481966      1.30153704     -0.62177280
O      -1.97238814      2.61271293     -1.02763331
C      -0.88671220      0.62137277     -0.28718776
N       0.29812286      1.26229025     -0.36832654
C       1.42642799      0.58322544     -0.03816002
C       2.70903235      1.35700884     -0.15126655
H       3.17275123     -0.99239788      1.58038117
H       2.45810264     -2.51650872      1.04703573
H       3.34651422     -1.52846254     -0.11597379
H       0.12406267     -2.43382254      0.78175583
H      -2.36709523     -2.36415606      0.50452881
H      -4.39637941     -1.09093478     -0.10567343
H      -4.19561284      1.28272151     -0.83513733
H      -1.01095839      2.80600879     -0.99021809
H       3.37922453      0.88235039     -0.87437657
H       2.51664375      2.37922380     -0.49398384
H       3.20543416      1.41837472      0.82195810
