23
O=C(O)/C=C/C=C/c1ccccc1
O      -5.05845501      1.06431769      0.16838752
C      -4.68159141     -0.04402036     -0.15860780
O      -5.53781732     -1.02419636     -0.48764388
C      -3.29944727     -0.52779350     -0.26012453
C      -2.28162883      0.29543240      0.02872966
C      -0.89624747     -0.11287399     -0.04979679
C       0.11966933      0.71828052      0.23070461
C       1.53636361      0.33509485      0.15186002
C       2.46413566      1.26623529     -0.33265637
C       3.82328928      0.94900292     -0.39737191
C       4.26966743     -0.29857598      0.03295235
C       3.35891711     -1.22716218      0.53242909
C       1.99940116     -0.91037298      0.59645320
H      -6.41873367     -0.60641497     -0.38983624
H      -3.15527096     -1.55436799     -0.57240190
H      -2.48584031      1.32028681      0.33785583
H      -0.69589704     -1.13547988     -0.36331320
H      -0.07110735      1.75037574      0.51661946
H       2.13500401      2.24543583     -0.67322391
H       4.53226367      1.67718962     -0.78256999
H       5.32709674     -0.54496951     -0.01576849
H       3.70626008     -2.19714941      0.87852478
H       1.30996856     -1.64284257      1.00879848
