52
CCCCC(CC)CNCC(CC)CCCC
C      -5.18312931      3.25941052      0.29315582
C      -5.10172464      1.74984356      0.45565256
C      -3.75390246      1.20624752     -0.02352133
C      -3.67428058     -0.31464858      0.15445013
C      -2.42783794     -0.97153832     -0.49099186
C      -2.46106374     -2.51023675     -0.30889457
C      -3.69885495     -3.18687990     -0.88470205
C      -1.11960674     -0.36624135      0.08051619
N       0.08357789     -0.90527819     -0.56328491
C       1.29302974     -0.24681353     -0.05811297
C       2.57350996     -0.76377982     -0.75526561
C       2.76974321     -2.29577263     -0.64697067
C       2.83248623     -2.84453752      0.77199919
C       3.83270311     -0.02799785     -0.23658309
C       3.87531608      1.45756896     -0.61250745
C       5.20250830      2.09480808     -0.19659484
C       5.25068602      3.57007922     -0.56129672
H      -5.06624391      3.54775650     -0.75637564
H      -6.15421434      3.62612561      0.64016519
H      -4.40314661      3.75950425      0.87612955
H      -5.91540787      1.28399689     -0.11231283
H      -5.25280711      1.49240504      1.51046495
H      -2.95728639      1.69584976      0.54692013
H      -3.60987442      1.46221005     -1.07994996
H      -3.70388029     -0.55554946      1.22467735
H      -4.57761049     -0.74535389     -0.29181662
H      -2.45795721     -0.75927120     -1.56878732
H      -1.59578084     -2.95954229     -0.80838940
H      -2.37846694     -2.76152792      0.75554293
H      -3.57251138     -4.27447328     -0.86497155
H      -4.59456520     -2.95538175     -0.30144690
H      -3.86644752     -2.88460615     -1.92307472
H      -1.12729192      0.71668479     -0.07911239
H      -1.07720450     -0.54469926      1.16224120
H       0.14652686     -1.90351829     -0.37395799
H       1.37497837     -0.38464390      1.02663296
H       1.19876851      0.82869124     -0.24250426
H       2.48270604     -0.54042040     -1.82793761
H       3.69560760     -2.57277331     -1.16721111
H       1.96655871     -2.80999804     -1.18793193
H       2.99547406     -3.92704941      0.74387955
H       1.90005267     -2.66710076      1.31521821
H       3.65579997     -2.40168860      1.33939452
H       3.90071163     -0.12246978      0.85399423
H       4.72434125     -0.51440552     -0.65261599
H       3.05597293      1.99574218     -0.12413770
H       3.73995583      1.56775909     -1.69508417
H       6.03492594      1.57675183     -0.68687645
H       5.34439207      1.98663351      0.88502059
H       4.45048856      4.12441281     -0.06056805
H       6.20756128      4.00490865     -0.25598392
H       5.14271448      3.71080760     -1.64151030
