38
CC(C)(C)C(O)/C(=C\c1ccc(Cl)cc1Cl)n1cncn1
C      -2.78218056      1.04154351      0.11732574
C      -1.87852998     -0.19794971      0.00646535
C      -1.46298960     -0.61735640      1.42849350
C      -2.73494603     -1.33724908     -0.59507929
C      -0.61366836      0.01278009     -0.90255247
O      -0.99519225      0.28609709     -2.25468762
C       0.45739722      1.01803883     -0.44324488
C       1.62112561      0.62364102      0.13517442
C       2.07549909     -0.75384937      0.40285370
C       2.37845142     -1.59501163     -0.67924788
C       2.83545543     -2.89706931     -0.46124684
C       3.00907876     -3.36146843      0.84018565
Cl      3.57253287     -4.96481259      1.10533078
C       2.73831708     -2.53569581      1.92772499
C       2.28089195     -1.23351707      1.70945917
Cl      1.98581683     -0.24275526      3.09713545
N       0.18664943      2.39013748     -0.69968215
C       0.91983467      3.49637866     -0.28235071
N       0.40300768      4.61929067     -0.71961884
C      -0.67144493      4.19258000     -1.42245992
N      -0.85560556      2.87456558     -1.44873766
H      -3.11762564      1.38777056     -0.86541175
H      -3.68335692      0.81689619      0.70091100
H      -2.27722316      1.86606487      0.62950700
H      -0.83511481     -1.51431416      1.40937509
H      -0.91238235      0.18044214      1.93658851
H      -2.33986640     -0.84667257      2.04528165
H      -3.60263241     -1.55842665      0.03728731
H      -3.11287608     -1.07459363     -1.58921620
H      -2.15330553     -2.26123195     -0.68944593
H      -0.14933247     -0.97458830     -0.97550850
H      -1.30522609      1.21643046     -2.27860707
H       2.36946156      1.34796226      0.45075941
H       2.25644320     -1.24439829     -1.70365235
H       3.05535740     -3.53986294     -1.31053431
H       2.88684654     -2.90228486      2.94001924
H       1.80002866      3.41886276      0.33772063
H      -1.34869626      4.86362583     -1.93631423
