57
CC(=O)OCC(=O)C1(O)CCC2C3CCC4=CC(=O)C=CC4(C)C3C(=O)CC21C
C       6.84367572     -1.49089287     -1.61371818
C       5.82643663     -0.55748566     -1.03414205
O       5.10181179      0.17706931     -1.69139859
O       5.83541330     -0.63772978      0.32521606
C       4.83691987      0.16381831      0.95714599
C       3.42025554     -0.39999210      0.78829157
O       3.23752492     -1.55163992      0.38878578
C       2.25597706      0.56837901      1.13583615
O       2.63042323      1.32462591      2.28555570
C       2.05793947      1.51634395     -0.06176030
C       0.89519974      0.94489588     -0.88255032
C       0.38893872     -0.29823078     -0.12947486
C      -1.11632699     -0.61693666     -0.29215723
C      -1.48461717     -0.78210737     -1.77758626
C      -2.95760530     -1.12662954     -1.96821964
C      -3.82125651     -0.10371096     -1.27346048
C      -4.71651552      0.61396667     -1.97543549
C      -5.53436352      1.67193399     -1.34851189
O      -6.35482059      2.31031583     -1.99519157
C      -5.30799076      1.93876737      0.08327496
C      -4.41858187      1.22436743      0.78536023
C      -3.56754351      0.08472310      0.23272657
C      -4.01398431     -1.20479409      0.96003597
C      -2.04428201      0.41107225      0.40892779
C      -1.56505351      0.55419440      1.85439305
O      -2.28946816      0.42274362      2.83808068
C      -0.11337875      0.94616746      2.03097458
C       0.83789040     -0.05959991      1.33078017
C       0.84505306     -1.35431792      2.16616108
H       7.84238519     -1.21141751     -1.26894338
H       6.81853922     -1.42155365     -2.70491309
H       6.60976832     -2.51873059     -1.32525736
H       5.06339352      0.17365333      2.02809864
H       4.89405781      1.19474098      0.59222283
H       2.55169066      0.75134839      3.07001899
H       2.94965982      1.60763682     -0.69046818
H       1.81810139      2.53339782      0.27209928
H       0.12244057      1.71158274     -0.99701710
H       1.22823932      0.67318366     -1.89062453
H       0.93618123     -1.16088669     -0.53415356
H      -1.27094506     -1.59192727      0.18989984
H      -0.87032826     -1.57190451     -2.22691621
H      -1.26401370      0.14086753     -2.32836496
H      -3.16846935     -2.12641835     -1.57256500
H      -3.17546829     -1.17060087     -3.04233678
H      -4.87905951      0.47528747     -3.03840391
H      -5.90290282      2.72687609      0.52872330
H      -4.31544851      1.45318327      1.84546232
H      -4.01709986     -1.09254435      2.04905681
H      -5.03748197     -1.48233004      0.67522084
H      -3.37493934     -2.06238911      0.72914625
H      -1.87671944      1.39925367     -0.04508020
H      -0.01366123      1.96465067      1.63970584
H       0.10423896      0.99989569      3.10484070
H      -0.17091259     -1.69521713      2.39354488
H       1.35939777     -1.20370479      3.12125698
H       1.33168518     -2.18525020      1.64960509
