30
Cc1cccc(C)c1NC(=O)C(C)N
C      -1.31673840     -1.97618153     -1.45090928
C      -1.81044971     -0.71955994     -0.78603491
C      -3.20790466     -0.55477343     -0.72295149
C      -3.77506069      0.61443549     -0.22919183
C      -2.95308357      1.64554926      0.20611249
C      -1.55534115      1.50609829      0.18395371
C      -0.72511013      2.65627268      0.69386231
C      -0.97421567      0.29699041     -0.27664358
N       0.43580667      0.20702333     -0.24713628
C       1.20260276     -0.89920075      0.09147752
O       0.79934738     -2.01410308      0.39971141
C       2.70886863     -0.54537135      0.04090804
C       3.56591695     -1.59712946      0.73314446
N       2.92083649      0.79072963      0.65517076
H      -2.00586563     -2.28441098     -2.24631800
H      -1.25431414     -2.79436474     -0.72815536
H      -0.35085000     -1.82511085     -1.94130593
H      -3.86513956     -1.34248474     -1.08700112
H      -4.85545147      0.72582359     -0.19923761
H      -3.41088785      2.56075653      0.57500252
H      -1.35140225      3.48551433      1.04027770
H      -0.11081754      2.33659031      1.54187561
H      -0.08306979      3.04414347     -0.10349913
H       0.96157197      1.06413048     -0.09183816
H       2.98945449     -0.48882337     -1.01741075
H       3.44051243     -2.57501523      0.25549843
H       4.62837221     -1.33556902      0.68386349
H       3.28933842     -1.70901370      1.78767479
H       3.91318625      1.02158415      0.57831058
H       2.74988755      0.70547021      1.66078961
