31
CC(C)NC(=O)COC(=O)c1ccccc1
C      -2.88871220      1.21563184      1.87205127
C      -2.92491707     -0.04706782      1.01778812
C      -3.24272308      0.29183587     -0.43702907
N      -1.65396941     -0.74808386      1.11260440
C      -1.54745261     -2.09936967      0.84250194
O      -2.51587227     -2.83821494      0.68790730
C      -0.10975988     -2.62468653      0.83510981
O       0.88024118     -1.62238827      0.58249668
C       1.03885061     -1.30159704     -0.72626763
O       0.39612269     -1.76109056     -1.65496667
C       2.09477862     -0.26607525     -0.88715908
C       2.30336459      0.27087845     -2.16498306
C       3.27868921      1.24919429     -2.36701750
C       4.05096873      1.69497947     -1.29540666
C       3.85179982      1.16393802     -0.02137544
C       2.87673485      0.18494727      0.18545881
H      -2.67463793      0.96935476      2.91784020
H      -3.84923575      1.73995100      1.83699084
H      -2.10935587      1.90587805      1.53011610
H      -3.70979849     -0.70983832      1.40124317
H      -2.46699915      0.93142694     -0.87290966
H      -3.30187798     -0.61499144     -1.04843935
H      -4.20170119      0.81426679     -0.51596190
H      -0.80096107     -0.20524056      1.05416133
H      -0.02471270     -3.44480288      0.11259278
H       0.09284361     -3.03644354      1.82936235
H       1.70684433     -0.07104616     -3.00923546
H       3.43622496      1.66159606     -3.36084145
H       4.81165853      2.45589933     -1.45429092
H       4.45899877      1.51106996      0.81145727
H       2.74456614     -0.21833444      1.18620150
