27
CC(=O)C(=Cc1ccccc1)CC(=O)O
C      -3.08399014      1.86770806     -0.49667952
C      -2.52061634      0.56838018     -1.01465005
O      -3.20165060     -0.16801217     -1.72969174
C      -1.11255576      0.16728917     -0.66476163
C      -0.29449125      1.02654623     -0.02625357
C       1.07393532      0.70404536      0.38671275
C       1.30494035     -0.13054901      1.48645920
C       2.61095914     -0.43582090      1.87271535
C       3.68947167      0.09297951      1.16469322
C       3.46419427      0.92827116      0.07089339
C       2.15879402      1.23522196     -0.31777669
C      -0.74246833     -1.23194594     -1.10035955
C      -1.41464110     -2.25095692     -0.20816484
O      -1.88435161     -2.07318402      0.90494730
O      -1.40344545     -3.48735080     -0.74983704
H      -2.98775515      1.91813456      0.59104272
H      -2.58065495      2.71245069     -0.97352241
H      -4.15001435      1.91931002     -0.73950064
H      -0.59938485      2.03345451      0.24414762
H       0.47126267     -0.54757145      2.04867289
H       2.78613761     -1.08516357      2.72672418
H       4.70639652     -0.14508544      1.46646255
H       4.30591816      1.34049966     -0.47977032
H       1.99731561      1.88583990     -1.17393123
H       0.33639462     -1.41076221     -1.05958035
H      -1.05439231     -1.39584100     -2.13825994
H      -1.87530777     -4.03788755     -0.09073165
