43
CCOC(=O)C(C)Oc1ccc(Oc2cnc3cc(Cl)ccc3n2)cc1
C      -6.05414266      1.25764740      1.36141941
C      -5.62527376     -0.18318831      1.16469317
O      -4.73299478     -0.23369201      0.04639017
C      -4.23636009     -1.47336943     -0.22278975
O      -4.52833105     -2.49464098      0.38985326
C      -3.27883040     -1.44700028     -1.41658702
C      -4.11272619     -1.45673410     -2.69445927
O      -2.42625024     -0.30766451     -1.47691489
C      -1.40986847     -0.20446021     -0.56836206
C      -1.05704951     -1.15314848      0.39388143
C       0.01267853     -0.90752573      1.26194723
C       0.74015090      0.27640684      1.15643839
O       1.74593963      0.50019562      2.06350228
C       3.03367789      0.61093506      1.55653141
C       4.00695098      1.09878194      2.40951187
N       5.30277062      1.22946700      2.03750289
C       5.60202847      0.84636021      0.78130983
C       6.91024830      0.94955876      0.33049292
C       7.25067315      0.55949386     -0.96201901
Cl      8.87908607      0.69582872     -1.49776736
C       6.28069575      0.06044014     -1.82209422
C       4.96214748     -0.04623565     -1.37724507
C       4.60333076      0.33698437     -0.09168042
N       3.32127273      0.21577598      0.29595558
C       0.38323772      1.23772261      0.21294567
C      -0.68429833      0.98885055     -0.65169869
H      -6.55043142      1.63808151      0.46277278
H      -5.18302275      1.89723996      1.53974027
H      -6.73926402      1.34892132      2.20899386
H      -6.50348443     -0.80678176      0.96380481
H      -5.11365268     -0.54294666      2.06446828
H      -2.67746232     -2.36464885     -1.40811749
H      -3.46294215     -1.50214594     -3.57538115
H      -4.70506512     -0.53881266     -2.78492044
H      -4.79827873     -2.31011178     -2.71869394
H      -1.58424953     -2.09484322      0.50455438
H       0.28018538     -1.64504029      2.01358048
H       3.77112379      1.40093921      3.42346879
H       7.66909537      1.34006651      1.00351245
H       6.53774429     -0.24638682     -2.83268939
H       4.19733825     -0.43711806     -2.04501011
H       0.93038234      2.17247919      0.14113667
H      -0.95677977      1.73431899     -1.39508408
