29
C=CC1(C)CCCC(C)(C)O1
C       2.27857412      1.44907270     -1.04994570
C       1.51242848      1.32240914      0.04311978
C       1.00016842      0.05020192      0.69149707
C       1.75166610     -0.07949058      2.03048541
C       1.19580604     -1.26326883     -0.09222065
C       0.21447909     -1.40795264     -1.24675091
C      -1.20570604     -1.24957512     -0.72448079
C      -1.39321529      0.06000285      0.05760165
C      -2.71379829     -0.01845822      0.84250723
C      -1.48469482      1.27366292     -0.87853846
O      -0.37750514      0.23612189      1.05563226
H       2.57383876      2.43405498     -1.40010534
H       2.63257904      0.59830471     -1.62088614
H       1.21361550      2.23821785      0.55397984
H       1.60949406      0.81025443      2.65669364
H       2.82700030     -0.22923328      1.88198581
H       1.36371900     -0.92244661      2.61508407
H       1.02345536     -2.11243302      0.58405103
H       2.22566007     -1.36867635     -0.45254007
H       0.42204561     -0.67235851     -2.03023001
H       0.32943730     -2.39634407     -1.70635388
H      -1.92062049     -1.31556907     -1.55327649
H      -1.41151176     -2.10161401     -0.06242061
H      -2.68651099     -0.83688155      1.57151135
H      -2.88057044      0.89960175      1.41821375
H      -3.57225961     -0.17371648      0.18051851
H      -2.38886362      1.23115302     -1.49613164
H      -1.50226272      2.20736028     -0.30510594
H      -0.63644803      1.33759989     -1.56389476
