25
COC(=O)c1ccc(NC(C)=O)cc1
C       5.01080149      0.23726310      0.97729625
O       3.58473889      0.26438901      0.90483288
C       3.08334488     -0.20337695     -0.26509260
O       3.73796395     -0.62235679     -1.20702618
C       1.59629946     -0.14309500     -0.26348026
C       0.86121069      0.34045326      0.82415018
C      -0.53921453      0.37593125      0.77458900
C      -1.22309008     -0.06995956     -0.35796908
N      -2.62716178     -0.06585521     -0.48523897
C      -3.55652104      0.35068146      0.45108226
C      -4.97325952      0.20113156     -0.04550244
O      -3.32940127      0.77600132      1.57781722
C      -0.48443826     -0.55288382     -1.44555191
C       0.91363433     -0.59000622     -1.40022187
H       5.30786745      0.63204777      1.95281222
H       5.37961916     -0.78974826      0.89229183
H       5.44643005      0.87215262      0.19938448
H       1.35843887      0.69611882      1.72357869
H      -1.06433810      0.76086742      1.64380979
H      -2.99297317     -0.41638510     -1.36160468
H      -5.30818638     -0.82621191      0.11958210
H      -5.62447451      0.88834966      0.50237106
H      -5.04287577      0.44494687     -1.10953474
H      -0.98129128     -0.90819178     -2.34490093
H       1.46687648     -0.96986656     -2.25747430
