37
CC(=O)/C=C/[C@H]1C(C)=CC[C@@H](C)C1(C)C
C       4.36521004      0.41578505     -0.73859148
C       3.95409565      0.06126855      0.66563219
O       4.78367596     -0.21129297      1.53241556
C       2.51123401      0.03587364      1.02972392
C       1.50407156      0.31439659      0.18684734
C       0.03924656      0.29319287      0.59313874
C      -0.60200857      1.67084745      0.41778732
C       0.20963615      2.88366551      0.79755800
C      -1.87504080      1.81562826      0.00628896
C      -2.80313529      0.67641802     -0.28121072
C      -2.28428911     -0.67822619      0.23657966
C      -3.22477895     -1.79052130     -0.24430995
C      -0.76744204     -0.87761819     -0.10729092
C      -0.54124103     -0.89970867     -1.63990730
C      -0.27256477     -2.23317116      0.45210702
H       4.04326036      1.43210027     -0.97988958
H       3.94499629     -0.30275056     -1.44706930
H       5.45598839      0.37455789     -0.81639550
H       2.32237873     -0.23422971      2.06483503
H       1.70476023      0.59465609     -0.84397053
H      -0.00312384      0.10286289      1.67731038
H      -0.39289684      3.79864383      0.79409054
H       1.03654266      3.03580961      0.09693605
H       0.61656284      2.76777646      1.80753797
H      -2.30076024      2.81076495     -0.10737056
H      -2.98760594      0.63886115     -1.36155916
H      -3.76932751      0.88921348      0.19344276
H      -2.36853390     -0.66218338      1.33400962
H      -2.96010380     -2.75895719      0.18895478
H      -4.25424977     -1.57590639      0.06481790
H      -3.22628880     -1.88650354     -1.33379804
H      -0.76749480      0.06329683     -2.10737872
H      -1.15965757     -1.66021940     -2.12688961
H       0.49651755     -1.14784274     -1.88919329
H       0.80295789     -2.36818620      0.29621599
H      -0.46581758     -2.30990001      1.52775325
H      -0.76477371     -3.07840180     -0.03997946
