14
NNC(=O)c1nccs1
N       3.11790643     -0.12109841      0.61335107
N       1.71687964     -0.29879878      0.53413138
C       0.89791289      0.67425385     -0.04499384
O       1.36017554      1.74326928     -0.44916195
C      -0.50349129      0.27503795     -0.10900200
N      -0.93837445     -0.89251365      0.33611907
C      -2.30347568     -0.97554616      0.13573552
C      -2.88785425      0.12381739     -0.45571318
S      -1.69385534      1.31164806     -0.77765396
H       3.39476063      0.45939545     -0.18914756
H       3.30575009      0.48191194      1.42019121
H       1.29206814     -1.19284391      0.78762060
H      -2.83159002     -1.87076775      0.44268633
H      -3.92681233      0.28223473     -0.70706790
