40
C=CC(C)(O)/C=C/C1=C(C)CCCC1(C)C
C       4.28575512     -0.85788931      1.36726485
C       3.59080470     -0.26211736      0.38592748
C       2.79785423      1.02523034      0.47456704
C       3.42698436      2.07087421     -0.45021813
O       2.86558260      1.54072628      1.80259017
C       1.32898516      0.87274981      0.15659799
C       0.65437126     -0.25296387     -0.13727040
C      -0.77945564     -0.27541410     -0.40867880
C      -1.29945321      0.29536446     -1.52316938
C      -0.48541497      0.92237320     -2.63098710
C      -2.78797997      0.35062386     -1.79040003
C      -3.65591270     -0.00264355     -0.58979334
C      -3.09303206     -1.21756086      0.13034566
C      -1.65198583     -0.97612230      0.65548122
C      -1.09163163     -2.36064181      1.05666819
C      -1.71268731     -0.09386398      1.92348945
H       4.34790678     -0.43655870      2.36553310
H       4.82991647     -1.77856028      1.18088449
H       3.60317433     -0.73315086     -0.59644774
H       2.92547005      3.04142644     -0.34916208
H       3.38010094      1.76995981     -1.50329743
H       4.47809964      2.24484829     -0.18908498
H       2.34935140      0.92841805      2.35320374
H       0.76911710      1.80798861      0.18924162
H       1.15305836     -1.21864694     -0.15289442
H       0.58185034      0.69271302     -2.57588514
H      -0.83116242      0.55694604     -3.60421384
H      -0.60280151      2.01070568     -2.61201009
H      -3.01430797     -0.33926331     -2.61356358
H      -3.06646884      1.35524985     -2.13173929
H      -3.71772153      0.85264917      0.09266575
H      -4.67918801     -0.20746096     -0.92549578
H      -3.10034485     -2.06815318     -0.56570353
H      -3.76072002     -1.49268146      0.95650043
H      -1.78045702     -2.88165806      1.73216883
H      -0.13283579     -2.28084627      1.58132924
H      -0.94187356     -2.99870345      0.17779379
H      -2.39931776     -0.51683757      2.66622675
H      -2.05252158      0.92286520      1.69729746
H      -0.73110866     -0.00997415      2.40423784
