57
C[C@H]1C[C@H]2[C@@H]3CCC4=CC(=O)C=C[C@]4(C)[C@@]3(F)[C@@H](O)C[C@]2(C)[C@@]1(O)C(=O)CO
C      -3.90330355     -1.44507081     -2.00679105
C      -2.86066550     -1.55204382     -0.90125043
C      -1.43180212     -1.55656167     -1.50126103
C      -0.58778853     -0.88541035     -0.42580631
C       0.84830158     -0.46436940     -0.77740315
C       1.65362014     -1.67207892     -1.29320712
C       3.11541808     -1.32603382     -1.55501628
C       3.74220033     -0.71286720     -0.32946462
C       4.81988843     -1.28160175      0.23998291
C       5.42479012     -0.74511272      1.47571715
O       6.41873059     -1.25822940      1.97402122
C       4.78382044      0.43494803      2.08473425
C       3.71103349      1.00590772      1.52105199
C       3.03784902      0.53737807      0.23072495
C       3.23385971      1.68295534     -0.78934774
C       1.52117755      0.15966969      0.49045420
F       1.53288607     -0.85055795      1.44216271
C       0.64461053      1.28610633      1.12171377
O       0.70404837      2.50246119      0.38379372
C      -0.83375835      0.87396392      1.31332447
C      -1.48293516      0.28756856      0.03872098
C      -1.64077269      1.39693380     -1.03664864
C      -2.85102357     -0.46261482      0.23695920
O      -2.80017187     -1.18451505      1.48275233
C      -4.05856282      0.50560030      0.31720299
O      -4.68532730      0.90239547     -0.66964133
C      -4.45900310      1.01234095      1.70178787
O      -5.35269922      2.11549043      1.61273375
H      -4.91636959     -1.50770001     -1.59732816
H      -3.80789663     -0.51729156     -2.57799723
H      -3.78934692     -2.27358127     -2.71509196
H      -3.00760118     -2.53867276     -0.43938192
H      -1.38159716     -1.00606233     -2.44745815
H      -1.10092772     -2.58149944     -1.70089708
H      -0.50594041     -1.61332939      0.39769675
H       0.82337075      0.27581009     -1.58321448
H       1.21350281     -2.04551345     -2.22529487
H       1.59909717     -2.49446721     -0.56765549
H       3.19239261     -0.63030680     -2.39847560
H       3.64531835     -2.23645699     -1.86080357
H       5.29584892     -2.17033048     -0.15831580
H       5.23413048      0.81081989      2.99520297
H       3.29920336      1.88964878      2.00333877
H       4.28024712      1.74498713     -1.11700250
H       2.62557277      1.55546515     -1.68956064
H       2.99182000      2.66399133     -0.36686653
H       1.03392144      1.50834528      2.12209061
H       0.19579173      3.17383905      0.87374918
H      -1.41093638      1.74220434      1.65147741
H      -0.86494668      0.13654649      2.12451653
H      -2.21641730      1.06284323     -1.90421927
H      -0.68849626      1.75765865     -1.42910421
H      -2.16306015      2.26612830     -0.62033096
H      -3.49202972     -1.87082524      1.47406908
H      -3.57958428      1.34037077      2.25722594
H      -4.96174359      0.20646421      2.24300433
H      -5.78774422      2.04426211      0.73855668
