31
CCC(OCCCOC)OC(C)=O
C      -2.21524117     -2.85904595      0.84808187
C      -2.64586781     -1.48613786      0.35335146
C      -1.50870299     -0.45849482      0.40844534
O      -0.47784546     -0.90578201     -0.48128841
C       0.71715292     -0.13519076     -0.34711958
C       1.76235042     -0.71676748     -1.29161834
C       3.04155043      0.10693264     -1.31302779
O       3.60011717      0.15192229     -0.00190733
C       4.81900074      0.88332432      0.02505578
O      -2.00659583      0.81054027     -0.03598061
C      -2.60958084      1.56084195      0.92081600
C      -3.08522402      2.85323973      0.33125238
O      -2.75220339      1.24485284      2.09301241
H      -1.41627516     -3.27552644      0.22686254
H      -3.06096151     -3.55327275      0.81671309
H      -1.85720197     -2.80712231      1.88117284
H      -3.49999723     -1.13916796      0.94581022
H      -3.00467449     -1.57930748     -0.67940160
H      -1.09793836     -0.39712533      1.42507193
H       0.51184697      0.90874196     -0.60904439
H       1.06881507     -0.18211833      0.68964813
H       1.34922179     -0.78824202     -2.30475627
H       1.98409980     -1.74349691     -0.97453550
H       3.75968742     -0.35419304     -2.00073332
H       2.83012084      1.12600564     -1.65725309
H       4.65157907      1.91797351     -0.28932924
H       5.56475347      0.40877285     -0.61992178
H       5.19587037      0.88646755      1.05128934
H      -3.81643181      2.65445149     -0.45627052
H      -2.23544898      3.41501340     -0.06463497
H      -3.56597547      3.45191102      1.11023939
