25
c1ccc(Cc2ccccc2)cc1
C       3.57655350     -0.04160357      1.09911707
C       3.23733855     -1.24055981      0.47518646
C       2.10470887     -1.31039531     -0.33808774
C       1.29853242     -0.17994136     -0.53444856
C       0.07544492     -0.25292031     -1.42094400
C      -1.23330775     -0.03871924     -0.69401376
C      -2.03458717      1.07534219     -0.98250332
C      -3.24580012      1.26895137     -0.31570457
C      -3.66912181      0.35193553      0.64436346
C      -2.88242335     -0.75971949      0.93894673
C      -1.67153316     -0.95557216      0.27295110
C       1.65185660      1.02150576      0.09750829
C       2.78420724      1.08895460      0.91077108
H       4.45732481      0.01153263      1.73332028
H       3.85492687     -2.12260824      0.62242855
H       1.85503151     -2.25457472     -0.81654984
H       0.02779053     -1.22541830     -1.92848380
H       0.19270663      0.48622978     -2.22439073
H      -1.71990283      1.80160815     -1.72832568
H      -3.85901767      2.13636039     -0.54520111
H      -4.61116253      0.50420220      1.16414159
H      -3.20966247     -1.47411119      1.68963633
H      -1.06556324     -1.82534425      0.51718086
H       1.04000623      1.91097428     -0.03605085
H       3.04565344      2.02389108      1.39915214
