39
CC1=CCC(/C=C\C(C)C(C)O)C1(C)C
C      -4.18598985      0.75581538      0.43785396
C      -2.98025845      0.40512863     -0.36550913
C      -2.83480166      0.60613391     -1.68337881
C      -1.51911142      0.10781477     -2.18562399
C      -0.70135229     -0.03347778     -0.88694997
C       0.40226675     -1.05586777     -1.02042542
C       1.71699063     -0.88542721     -0.80010443
C       2.42648140      0.36431507     -0.32543599
C       3.14409697      1.00921629     -1.51751871
C       3.42413467      0.06665999      0.82362646
C       2.75715726     -0.51398669      2.06733930
O       4.10185324      1.26515847      1.21257937
C      -1.76747898     -0.29281289      0.23148463
C      -1.30767433      0.32959273      1.55653993
C      -2.08893930     -1.78185011      0.45118315
H      -4.59872552     -0.13217891      0.92556831
H      -4.97376768      1.18604885     -0.18959370
H      -3.93610116      1.49279137      1.20698118
H      -3.58084530      1.05085544     -2.32836607
H      -1.05219886      0.83053413     -2.86276793
H      -1.65209287     -0.84003566     -2.71864628
H      -0.25603427      0.95496312     -0.70725628
H       0.08484494     -2.04068031     -1.36563324
H       2.36643408     -1.74141880     -0.99053849
H       1.70736173      1.10136971      0.04910689
H       3.60287588      1.96230864     -1.23431159
H       2.44177207      1.21553809     -2.33333471
H       3.93372727      0.35805443     -1.90934210
H       4.19429801     -0.63256403      0.47677069
H       2.27752933     -1.47582245      1.86551381
H       3.49870073     -0.66061703      2.86050207
H       2.00772405      0.17750532      2.46700585
H       3.43372928      1.88891438      1.54541734
H      -0.37585716     -0.13011958      1.90131020
H      -1.13324693      1.40712504      1.45761366
H      -2.05488834      0.18844696      2.34573979
H      -2.91060084     -1.90943874      1.16559561
H      -2.38611683     -2.27701395     -0.48050210
H      -1.22589628     -2.32097878      0.85750674
