52
Cc1ccc2c(-c3cnc4[nH]cc(C(=O)NC5(C)CCNC5)c4n3)nn(C)c2c1
C       2.45657707     -0.15882084     -4.65302718
C       2.34654142     -0.37342753     -3.17060496
C       1.46243568      0.40403861     -2.41644663
C       1.35919453      0.24540883     -1.02866069
C       2.17055002     -0.70523899     -0.37798432
C       2.36873303     -1.14182223      0.97180720
C       1.67463386     -0.67607925      2.17604204
C       2.29749553     -0.75381194      3.42450468
N       1.75277624     -0.31690106      4.59405814
C       0.52211549      0.19008391      4.38353853
N      -0.29330255      0.72635355      5.33833265
C      -1.46655256      1.13953881      4.75904413
C      -1.41897054      0.85097796      3.39970940
C      -2.49314647      1.12085931      2.45341874
O      -3.46350134      1.80735187      2.75601074
N      -2.32562338      0.53889509      1.21579652
C      -3.19994979      0.78635665      0.06044004
C      -4.65766184      0.41265958      0.36903802
C      -2.70000303     -0.04125502     -1.14906711
C      -2.48795943      0.97094320     -2.26320907
N      -2.13295446      2.19414305     -1.55210094
C      -3.08846241      2.24869939     -0.43463120
C      -0.14440762      0.26682816      3.16468066
N       0.42280021     -0.16911238      2.00552824
N       3.33908508     -2.07358492      1.03552095
N       3.71454610     -2.25415426     -0.24345204
C       4.74507007     -3.21835382     -0.54927381
C       3.06219749     -1.45229269     -1.14220998
C       3.17502378     -1.31070274     -2.53425281
H       2.75960922     -1.08095528     -5.16004277
H       1.49236393      0.14195687     -5.07626917
H       3.19543134      0.62035521     -4.86402252
H       0.83755672      1.15253577     -2.90071697
H       0.66334093      0.86521584     -0.46843367
H       3.29499079     -1.17468805      3.52145282
H      -0.04668437      0.79886011      6.31524722
H      -2.24928531      1.59526855      5.35279416
H      -1.39764163      0.16540564      1.02923985
H      -5.27940989      0.46963299     -0.53204183
H      -4.72528849     -0.60933533      0.75892550
H      -5.10850265      1.08069726      1.10867630
H      -3.40888407     -0.81657787     -1.46041325
H      -1.75178421     -0.54717732     -0.92943155
H      -1.70135435      0.65948415     -2.95553204
H      -3.41207806      1.11462152     -2.83582337
H      -2.24692938      3.01046630     -2.15094779
H      -2.73365420      2.94388219      0.33189738
H      -4.05257277      2.61759845     -0.80630019
H       4.37608071     -3.88714739     -1.33084772
H       4.98240818     -3.79700896      0.34736034
H       5.63070574     -2.67648059     -0.89000417
H       3.88430168     -1.90419039     -3.10312338
