28
CCCC(=O)NNC(=O)c1ccncc1
C       5.32436897      0.68367010      0.07241749
C       3.91939484      0.98204941     -0.42464607
C       2.95619104     -0.15493479     -0.09636226
C       1.55053810      0.12712007     -0.58586774
O       1.20792070      1.15023829     -1.17388316
N       0.66726261     -0.90165661     -0.31055177
N      -0.70115033     -0.62248685     -0.50034176
C      -1.55949084     -1.02790815      0.50559961
O      -1.19384020     -1.74993558      1.43077304
C      -2.95554231     -0.51981647      0.44198153
C      -3.52715788     -0.05137402     -0.74198852
C      -4.83665019      0.39442281     -0.69547994
N      -5.58902000      0.39814056      0.42493214
C      -5.01634419     -0.07393328      1.55234438
C      -3.71747113     -0.54223962      1.61143612
H       5.33563297      0.54798365      1.15860279
H       5.71996461     -0.22530079     -0.39191807
H       5.99722759      1.51113534     -0.17348066
H       3.56536588      1.91517562      0.02973044
H       3.94651591      1.14814049     -1.50824453
H       2.91678207     -0.30909463      0.98837903
H       3.30173881     -1.08483070     -0.56304451
H       0.86535743     -1.56017351      0.44422155
H      -0.88493309      0.22414204     -1.03899240
H      -2.99733057     -0.04638736     -1.68676185
H      -5.33471209      0.76748400     -1.58656950
H      -5.65084204     -0.06602129      2.43431414
H      -3.30977667     -0.91360873      2.54622643
