31
CCCCCOC(=O)c1ccc(O)c(Cl)c1
C       4.11696470      1.75071417     -0.55467088
C       3.70205708      0.29013540     -0.63280226
C       2.53965784     -0.01306695      0.31268678
C       2.12543815     -1.48500269      0.22924744
C       0.99123257     -1.82157523      1.19552145
O      -0.17208295     -1.02406319      0.92577041
C      -1.00389395     -1.49842476     -0.03345133
O      -0.85673540     -2.53026056     -0.66783134
C      -2.15379101     -0.57366371     -0.22786885
C      -3.13376104     -0.92709205     -1.16926649
C      -4.23255123     -0.09464383     -1.39329162
C      -4.35135402      1.09077142     -0.67741436
O      -5.44395040      1.87193933     -0.93200764
C      -3.38148104      1.45205761      0.26059496
Cl     -3.53251640      2.92456355      1.14548115
C      -2.28190664      0.62482850      0.48910566
H       3.28795309      2.40944271     -0.83247037
H       4.44028869      2.01307069      0.45773168
H       4.94925126      1.94540044     -1.23826220
H       4.56172387     -0.34175967     -0.38111031
H       3.41515372      0.05254872     -1.66379604
H       1.68819995      0.62973228      0.05906057
H       2.83124261      0.22779850      1.34220246
H       2.98601074     -2.12549228      0.45457535
H       1.81210065     -1.70568703     -0.79788819
H       0.74884712     -2.89035346      1.15909756
H       1.29745601     -1.60278047      2.22435260
H      -3.04449090     -1.85467613     -1.73324909
H      -4.98997695     -0.37053546     -2.12239401
H      -5.38111001      2.65749121     -0.35676987
H      -1.53397611      0.91858293      1.22073962
