16
Nc1ncc2nccnc2n1
N       3.21010161      0.79438359      0.52856186
C       1.96594942      0.27002062      0.25935265
N       1.91677327     -0.94202693     -0.28819527
C       0.68230944     -1.42334241     -0.54175314
C      -0.48975311     -0.75307928     -0.29196705
N      -1.71345459     -1.28024696     -0.56820426
C      -2.76455674     -0.49389997     -0.26908620
C      -2.59424835      0.75974514      0.27635358
N      -1.37147616      1.27383691      0.54382162
C      -0.29955194      0.52056408      0.26547923
N       0.90487293      1.02474866      0.52943124
H       3.17106346      1.80390769      0.55380173
H       3.91167403      0.36604569     -0.05833226
H       0.65623468     -2.41819648     -0.97681428
H      -3.74762694     -0.89865231     -0.48033790
H      -3.43831100      1.39619196      0.51788844
