10
c1cncnc1
C      -1.14329462      0.07286565      0.09210367
C      -0.49017858     -1.13530029      0.00932787
N       0.84638293     -1.25248104     -0.09917236
C       1.53004619     -0.09751448     -0.12325987
N       1.00250139      1.13464617     -0.04977324
C      -0.33822805      1.18809723      0.05740824
H      -2.21820060      0.14137253      0.17869779
H      -1.03818417     -2.07276520      0.02833368
H       2.60872818     -0.16626230     -0.21015832
H      -0.75957266      2.18734173      0.11649254
