37
OC1CCCCCCCCCCC1
O      -3.33248128      1.26444252     -0.24030977
C      -2.16775189      0.44019156     -0.15574496
C      -1.00620083      1.19396468     -0.82009497
C      -0.47354316      2.31634400      0.08480915
C       0.91185344      2.82640914     -0.33008261
C       2.10932619      2.13504381      0.35096637
C       2.41922268      0.71398989     -0.13440586
C       1.72441557     -0.37641903      0.69076385
C       1.72930809     -1.72299333     -0.04305262
C       0.72291059     -2.74769846      0.50327443
C      -0.74558578     -2.29504152      0.52874379
C      -1.31663263     -1.92397834     -0.84653772
C      -2.48078845     -0.92353760     -0.79728020
H      -4.05538846      0.79779913      0.21271465
H      -1.96283035      0.30165722      0.91027341
H      -0.19270211      0.51362429     -1.06453503
H      -1.33934410      1.63624076     -1.76755114
H      -1.18354733      3.15177663      0.03439169
H      -0.44587875      2.00018295      1.13387549
H       1.02492130      2.79713651     -1.42030871
H       0.96330528      3.88629436     -0.04731475
H       2.99090785      2.75113111      0.12914669
H       1.99111863      2.15523717      1.44085825
H       3.50142783      0.54600579     -0.06204165
H       2.16673481      0.62917081     -1.19756873
H       2.23139411     -0.48594749      1.65732202
H       0.70715168     -0.06565553      0.92233728
H       2.73650699     -2.15387521      0.02149329
H       1.54228885     -1.57222330     -1.11152604
H       1.01745533     -3.01841442      1.52482443
H       0.80091292     -3.66377967     -0.09512203
H      -0.84788349     -1.47794364      1.24575134
H      -1.35135585     -3.11223184      0.94145786
H      -0.54693856     -1.53338007     -1.51519915
H      -1.67182246     -2.84381216     -1.32899828
H      -3.32284504     -1.38014809     -0.26080544
H      -2.84764161     -0.75956263     -1.81908028
