78
CCCCCCCCCc1cccc(Nc2cccc(CCCCCCCCC)c2)c1
C       8.80681334      3.68957454      1.51287091
C       7.90661761      2.99494746      2.52266660
C       7.76053306      1.49153465      2.27822141
C       7.02833314      1.15865834      0.97654425
C       6.79365252     -0.34854211      0.84028992
C       6.02001263     -0.67253070     -0.43923014
C       5.82281226     -2.17277195     -0.67851921
C       5.09863414     -2.94230969      0.43320037
C       3.70166942     -2.42372293      0.79190051
C       2.68794149     -2.57635315     -0.31514068
C       2.16011571     -3.83440708     -0.62546560
C       1.21137696     -3.96811237     -1.63727266
C       0.78278802     -2.84575464     -2.34881877
C       1.30278978     -1.57789495     -2.07125730
N       0.87688017     -0.42155187     -2.74711888
C      -0.38147158     -0.04981880     -3.25451391
C      -0.44326269      0.93451424     -4.24987061
C      -1.66414884      1.32105572     -4.80642995
C      -2.84640945      0.72361269     -4.37615637
C      -2.81506357     -0.26897586     -3.39117136
C      -4.09325580     -0.90242158     -2.89932429
C      -4.91614841      0.00375111     -1.97415941
C      -4.22543958      0.27619719     -0.63314415
C      -5.04113354      1.17858195      0.29795110
C      -6.31404043      0.51418724      0.82732326
C      -7.02792138      1.41542838      1.83764507
C      -8.30604697      0.75993818      2.36268443
C      -9.01560346      1.65796513      3.37587909
C     -10.28799766      1.01011075      3.89852520
C      -1.57763810     -0.65302785     -2.84793410
C       2.25130052     -1.45891330     -1.04439594
H       8.37706002      3.66608686      0.50755591
H       9.79455518      3.21995516      1.47896439
H       8.94112913      4.74004933      1.79053771
H       8.32671581      3.14496244      3.52406020
H       6.91972763      3.47147376      2.51923026
H       7.20580349      1.06124719      3.12131272
H       8.75023067      1.01946588      2.27828245
H       6.06514170      1.68181564      0.95381723
H       7.60996751      1.51078266      0.11744252
H       6.23589191     -0.70227184      1.71448285
H       7.75698186     -0.87215958      0.83283122
H       5.05032148     -0.16423511     -0.41924727
H       6.56251396     -0.26090257     -1.29994462
H       5.28293617     -2.30656631     -1.62355609
H       6.80703556     -2.63506788     -0.82659874
H       5.71669869     -2.92983992      1.33888030
H       5.03342780     -3.99584769      0.13262891
H       3.33392794     -2.97978839      1.66462897
H       3.75256904     -1.37880089      1.11947383
H       2.48123127     -4.71652720     -0.07635057
H       0.80463080     -4.94714533     -1.87615518
H       0.05749834     -2.97541357     -3.14785653
H       1.54425291      0.34069611     -2.72529483
H       0.46873493      1.40437801     -4.60898784
H      -1.69086703      2.08691845     -5.57666084
H      -3.79231988      1.03644403     -4.81181235
H      -4.70214459     -1.16895557     -3.77314650
H      -3.87417618     -1.85017439     -2.39125585
H      -5.87718904     -0.49149543     -1.79569089
H      -5.13685050      0.95489830     -2.47369658
H      -4.00471025     -0.67191778     -0.12819234
H      -3.26397497      0.77087992     -0.81290503
H      -5.29581179      2.11061828     -0.22140623
H      -4.40386899      1.45456139      1.14777624
H      -6.05900599     -0.44041816      1.30394444
H      -6.99672707      0.29309426     -0.00082349
H      -6.35563076      1.63122117      2.67681997
H      -7.27390265      2.37415879      1.36547787
H      -8.98097817      0.54700086      1.52498300
H      -8.06026846     -0.20054007      2.83179653
H      -9.26677129      2.61888743      2.91076765
H      -8.34661014      1.87011851      4.21846175
H     -10.07023630      0.05528870      4.38748999
H     -10.77318702      1.66373534      4.63014019
H     -10.99651558      0.82719170      3.08455803
H      -1.55910610     -1.40481830     -2.06294494
H       2.64517961     -0.47599296     -0.79722988
