7
O.O=P[O-].[Na+]
O       0.01645454      0.39747457      0.00000000
O      -1.27729394     -0.14343342      0.00000000
P       0.13843322      0.73929343      0.00000000
O       1.13886072     -0.59586001      0.00000000
Na      0.00000000      0.00000000      0.00000000
H       0.75458724     -0.23031614      0.00000000
H      -0.77104179     -0.16715844      0.00000000
