18
COc1ccc([N+](=O)[O-])cc1
C       3.15678489     -0.14715348      0.47405376
O       2.22776660     -0.61193905     -0.49758930
C       0.91089798     -0.30604360     -0.29489622
C       0.04394505     -0.78870353     -1.28170577
C      -1.33102646     -0.55206690     -1.20559882
C      -1.84046926      0.17741930     -0.12632002
N      -3.28314478      0.43308066     -0.03439375
O      -3.69214497      1.08355363      0.93820989
O      -4.00760396     -0.01604670     -0.93399182
C      -0.98264954      0.66577660      0.86774997
C       0.39319689      0.42150696      0.77934264
H       3.16375781      0.94679262      0.52142811
H       2.95190291     -0.58482656      1.45663923
H       4.15460523     -0.47356774      0.16551905
H       0.44689589     -1.35560617     -2.11884742
H      -1.97992882     -0.93991294     -1.98774514
H      -1.36477254      1.23481589      1.71310575
H       1.03198708      0.81292100      1.56503986
