57
CC(C)c1cc(OP(=O)(Oc2ccccc2)Oc2ccccc2)cc(-c2ccccc2)c1
C      -1.86210696     -3.74110514     -1.22211850
C      -2.80210096     -2.53791756     -1.35242333
C      -2.98139006     -2.13807550     -2.81941834
C      -2.33170917     -1.36143919     -0.51369016
C      -1.07369788     -0.77225034     -0.71314031
C      -0.66921855      0.30766889      0.06830774
O       0.54311526      0.92655317     -0.04705807
P       1.80513468      0.32682755     -0.85728671
O       1.59128893      0.15128155     -2.33677896
O       3.00956277      1.32003467     -0.44980996
C       3.07994334      2.64025025     -0.78812722
C       4.12523223      3.36130247     -0.20711241
C       4.27982878      4.72061219     -0.48068316
C       3.38779682      5.36158836     -1.33926455
C       2.34789814      4.64014059     -1.92561699
C       2.19306110      3.27790581     -1.65270907
O       2.15066110     -1.02422043     -0.04487151
C       3.21954767     -1.83688223     -0.29345033
C       3.42432992     -2.86799801      0.62651141
C       4.49191521     -3.75346413      0.46656858
C       5.35448123     -3.61088810     -0.61864437
C       5.14713649     -2.58472591     -1.54163502
C       4.07893468     -1.69598186     -1.38102808
C      -1.52245405      0.82402863      1.04501623
C      -2.78608406      0.26048808      1.27241762
C      -3.67533761      0.79562024      2.31669529
C      -4.05401636      2.14814990      2.32322754
C      -4.89214316      2.65609614      3.32040937
C      -5.36524042      1.81905943      4.32797050
C      -5.00250948      0.47493567      4.33875258
C      -4.16531983     -0.03221866      3.34022928
C      -3.17357501     -0.83518613      0.48143611
H      -0.86964375     -3.53579311     -1.63957692
H      -2.27133543     -4.60697896     -1.75398658
H      -1.73053092     -4.02453771     -0.17077520
H      -3.78521422     -2.85897654     -0.98140150
H      -3.66287649     -1.28620149     -2.91018061
H      -3.40417358     -2.96717502     -3.39636519
H      -2.03088450     -1.85737208     -3.28569187
H      -0.42936784     -1.16827990     -1.49221302
H       4.82087144      2.86478429      0.46475678
H       5.09361709      5.27887383     -0.02405162
H       3.50499096      6.42103141     -1.55409161
H       1.65571131      5.13841208     -2.60022672
H       1.37664933      2.74730158     -2.13481758
H       2.75263121     -2.98177237      1.47374565
H       4.64892885     -4.55300408      1.18698362
H       6.18613708     -4.30044226     -0.74693338
H       5.81672123     -2.47704298     -2.39212229
H       3.94389314     -0.91508679     -2.12482253
H      -1.18784934      1.66565461      1.65005358
H      -3.70266104      2.81667800      1.54017131
H      -5.17594269      3.70483882      3.30669408
H      -6.01472479      2.21382679      5.10578190
H      -5.36698574     -0.18030836      5.12514024
H      -3.88341682     -1.08221520      3.37349759
H      -4.15750928     -1.27640498      0.63775665
