27
CCC(C)C(NC(C)=O)C(=O)O
C      -2.45942864      0.61711659      1.95138832
C      -1.08911814      0.19106586      1.44169669
C      -1.10185800     -0.31501623     -0.01651983
C      -1.51062242      0.79490656     -0.99495227
C       0.26284418     -0.94694480     -0.38391228
N       1.33189930      0.04745784     -0.50313015
C       2.30061270      0.20247091      0.45620086
C       3.37703764      1.18926664      0.09275462
O       2.30754410     -0.40581366      1.52075974
C       0.18577510     -1.71333632     -1.70609183
O       0.68713452     -1.36811277     -2.76721016
O      -0.52660476     -2.85407267     -1.62508059
H      -2.40267102      0.86156241      3.01712653
H      -2.82468430      1.50613963      1.42944240
H      -3.19271625     -0.18586477      1.82742260
H      -0.39639241      1.03425796      1.54721282
H      -0.71950558     -0.60821873      2.09588756
H      -1.86370543     -1.10343710     -0.08622600
H      -2.54016764      1.11899902     -0.81357135
H      -1.46670194      0.44791952     -2.03212580
H      -0.86235698      1.67244630     -0.90185982
H       0.55576371     -1.67904219      0.37887738
H       1.49094638      0.43059890     -1.42958778
H       3.09268228      1.79724222     -0.77062189
H       4.29613428      0.64591976     -0.14134492
H       3.54874817      1.85882503      0.94010781
H      -0.48058886     -3.23633588     -2.52664266
