13
CC1COC(=O)O1
C      -1.58223178      0.42963450      0.35306795
C      -0.29044576      0.16685229     -0.39379191
C       0.40398077     -1.09150911      0.03143017
O       1.76065205     -0.80631344     -0.26009637
C       1.89568403      0.55213278     -0.18318540
O       2.96269113      1.14096973     -0.18838826
O       0.67516558      1.16224000     -0.09655910
H      -2.01014649      1.38944499      0.04456435
H      -1.40823644      0.49919920      1.43249543
H      -2.31677305     -0.35877421      0.16418223
H      -0.46994371      0.18204476     -1.47563964
H       0.31573753     -1.30049000      1.10335094
H       0.06386614     -1.96543148     -0.53143037
