63
CCCCCCCCCCC(CO)CCCCCCCC
C       8.05053376     -2.64551483     -1.15360470
C       7.90759279     -2.19688989      0.29256524
C       6.78796627     -1.17453851      0.50693510
C       7.04125547      0.15416153     -0.20561493
C       6.06319191      1.26958614      0.18274130
C       4.60610128      1.00832218     -0.21775586
C       3.76158691      0.45555252      0.93471367
C       2.34230830      0.06099672      0.51347757
C       1.48844565      1.24801601      0.05793473
C       0.04908893      0.81171038     -0.24192713
C      -0.90146275      1.98615569     -0.56759020
C      -0.41001051      2.83643239     -1.75347169
O      -0.17929009      2.04850070     -2.91261588
C      -2.33736059      1.47970802     -0.84457655
C      -3.02640518      0.88240220      0.38759711
C      -4.48783088      0.53262761      0.08970490
C      -5.17315088     -0.07208324      1.31744594
C      -6.66956381     -0.33290714      1.11564048
C      -6.96116371     -1.43577064      0.09433326
C      -8.45687076     -1.69898365     -0.10056513
C      -9.13828022     -2.28466007      1.12643282
H       8.80056629     -3.43955436     -1.22775914
H       8.37437154     -1.82332050     -1.79848897
H       7.10379613     -3.03679128     -1.53916747
H       7.69699576     -3.07714065      0.91165847
H       8.86137059     -1.78499623      0.64239233
H       5.84109735     -1.60783250      0.16572930
H       6.69232053     -0.99386261      1.58440441
H       8.05630138      0.49859809      0.02852397
H       7.00165345      0.00969482     -1.29153877
H       6.39554922      2.17831084     -0.33576216
H       6.14097931      1.48358770      1.25525613
H       4.55905904      0.33977645     -1.08512407
H       4.17300650      1.96485476     -0.53392051
H       3.70986979      1.19897523      1.73976011
H       4.24323633     -0.42992296      1.36121030
H       2.39120663     -0.68817859     -0.28611369
H       1.85618694     -0.42287573      1.36982990
H       1.93234793      1.68882887     -0.83982265
H       1.48362762      2.01808763      0.83834869
H      -0.33021882      0.27592890      0.63543069
H       0.05308393      0.09168942     -1.06978683
H      -0.94281022      2.64890496      0.30706203
H      -1.13523546      3.61817999     -2.00516790
H       0.52551668      3.34604303     -1.50344242
H      -1.03768303      1.70810842     -3.21523096
H      -2.94462181      2.31981151     -1.20557909
H      -2.32465908      0.73215832     -1.64736405
H      -2.98288132      1.59905493      1.21641985
H      -2.50483582     -0.02462774      0.71120745
H      -4.52188939     -0.17332371     -0.74744450
H      -5.02506965      1.43615095     -0.22300513
H      -4.67155049     -1.00548627      1.60113861
H      -5.05930872      0.61700876      2.16393653
H      -7.08987938     -0.61451280      2.08778019
H      -7.16724534      0.59597684      0.81172399
H      -6.46134642     -2.36377602      0.39736926
H      -6.54483934     -1.15421890     -0.87933445
H      -8.57823140     -2.40247285     -0.93264913
H      -8.96420396     -0.77258958     -0.39294343
H     -10.17430456     -2.54808381      0.88991160
H      -8.62729669     -3.19144263      1.46511723
H      -9.16071395     -1.56954986      1.95363424
