32
c1cc2c3c(ccc4c3c1CCC4)CCC2
C      -0.76655687      2.41069302      0.22924625
C       0.61773517      2.43706474      0.36594036
C       1.36060588      1.25455008      0.26695247
C       0.71320661      0.02792567     -0.00253878
C       1.44739056     -1.17096283     -0.14396077
C       0.78968884     -2.36881054     -0.44823941
C      -0.59460307     -2.39518290     -0.58493423
C      -1.34380849     -1.22413766     -0.41958347
C      -0.69720033      0.00105658     -0.14181189
C      -1.43059376      1.20137571     -0.00866874
C      -2.93099050      1.20265410     -0.18029121
C      -3.53172262     -0.15408201      0.17527228
C      -2.84240536     -1.27312455     -0.59972555
C       2.95304619     -1.16271854     -0.02743773
C       3.43482571     -0.02136096      0.86319644
C       2.86446451      1.31306219      0.39198656
H      -1.32732833      3.33896041      0.30857047
H       1.11675199      3.38552375      0.54991534
H       1.35553084     -3.28790215     -0.58065037
H      -1.08855748     -3.33446378     -0.82199910
H      -3.16436424      1.45792688     -1.22108809
H      -3.38358492      1.96742774      0.46190310
H      -3.41935103     -0.33267125      1.25315229
H      -4.60616294     -0.15606689     -0.03993361
H      -3.23318507     -2.23608083     -0.25023984
H      -3.06971233     -1.18735875     -1.66924006
H       3.38167587     -1.06446674     -1.03218110
H       3.30398773     -2.11154373      0.39529952
H       4.52990207      0.01798602      0.86222171
H       3.12069715     -0.20806939      1.89896186
H       3.28702541      1.58082567     -0.58404183
H       3.15359280      2.09197095      1.10741711
