43
O=C(O)CCCCO/N=C(/c1cccnc1)c1cccc(C(F)(F)F)c1
O       6.01330788     -0.23388791     -0.68045318
C       5.65206048      0.91368555     -0.87477291
O       6.55804616      1.90160890     -1.01515316
C       4.24191152      1.42507605     -1.00718409
C       3.18948171      0.35679988     -0.71080573
C       3.08437055      0.03673175      0.78595153
C       2.04335987     -1.04176411      1.07079604
O       0.75877211     -0.56834097      0.67046464
N      -0.19613647     -1.54891518      0.97284188
C      -1.39616941     -1.19943237      0.60201892
C      -2.51421840     -2.16549475      0.82342270
C      -2.23847967     -3.51881471      1.03878110
C      -3.28622059     -4.41331418      1.24782360
C      -4.58150658     -3.92261173      1.23741583
N      -4.88859269     -2.62228235      1.03958993
C      -3.84858843     -1.77278465      0.84435867
C      -1.70736235      0.10970850     -0.03280039
C      -2.16642087      0.14993261     -1.35191708
C      -2.46617706      1.37894649     -1.93729390
C      -2.29938633      2.56084953     -1.20997758
C      -1.82412316      2.53011631      0.11179503
C      -1.63578319      3.79956703      0.90482294
F      -2.55640540      3.92777165      1.89954286
F      -1.73902624      4.93047209      0.15228634
F      -0.41769470      3.86600595      1.50995450
C      -1.53579574      1.28892239      0.69941330
H       7.42158560      1.44793484     -0.91866621
H       4.11674628      1.76838523     -2.04031500
H       4.10907780      2.28030017     -0.33573653
H       2.21998962      0.72340221     -1.06938998
H       3.41211368     -0.55938626     -1.27103456
H       4.05290456     -0.29594140      1.17395485
H       2.80909503      0.95277833      1.32297130
H       2.02757070     -1.26118663      2.14472854
H       2.28233582     -1.96170277      0.52450961
H      -1.21329243     -3.88148733      1.04298175
H      -3.09410513     -5.46726283      1.41593125
H      -5.43117765     -4.58114196      1.39536988
H      -4.15047254     -0.73786152      0.71389503
H      -2.28278924     -0.76540471     -1.92718665
H      -2.82456786      1.41874694     -2.96374608
H      -2.53553359      3.51288688     -1.68513107
H      -1.16270361      1.23838904      1.72179915
