34
CC(NC(C)(C)C)C(=O)c1cccc(Cl)c1
C      -0.05131907      2.56758575      0.29903678
C      -0.32262305      1.07412307      0.12751312
N      -1.68572676      0.93659437     -0.43077028
C      -2.43588668     -0.28235680     -0.07687057
C      -1.67609710     -1.58389708     -0.37774124
C      -2.84686458     -0.24623315      1.40549071
C      -3.72024510     -0.26209151     -0.92975721
C       0.70296594      0.49491896     -0.86438796
O       0.45638190      0.42499358     -2.07143691
C       2.03072024      0.01084013     -0.37026552
C       2.44512894      0.14426792      0.96180498
C       3.69741722     -0.33258850      1.36225738
C       4.54249096     -0.94419316      0.43756280
C       4.13489217     -1.07686627     -0.88737600
Cl      5.17894488     -1.83164406     -2.02759798
C       2.88884763     -0.60394796     -1.29479170
H      -0.77789569      3.02272280      0.98127564
H       0.94743829      2.74468645      0.71129403
H      -0.10246733      3.09966610     -0.65843539
H      -0.25276593      0.57516408      1.09554102
H      -1.58958244      0.98646269     -1.45308473
H      -2.30919126     -2.45801707     -0.18445705
H      -1.36704252     -1.63347903     -1.42776558
H      -0.78377980     -1.69231962      0.24762323
H      -1.98633281     -0.33094575      2.07690539
H      -3.37271048      0.68411741      1.65048723
H      -3.52270911     -1.07602591      1.64394206
H      -3.49081753     -0.29667897     -2.00155017
H      -4.35926677     -1.12356598     -0.70302828
H      -4.31127262      0.64274332     -0.74352814
H       1.82372113      0.61986251      1.71451489
H       4.01551186     -0.22541371      2.39724803
H       5.51504448     -1.31295164      0.75411918
H       2.58509095     -0.71553297     -2.33418418
