51
CCOC(=O)N1CCN(CN2CCN(C(=O)OCC)CC2)CC1
C      -7.93385967     -1.33119807      0.14660491
C      -7.54577328      0.04057551     -0.37255235
O      -6.15365647      0.06368412     -0.71820802
C      -5.29100117      0.35227613      0.29468836
O      -5.64531261      0.58149281      1.44527207
N      -3.97124236      0.35902037     -0.12253453
C      -3.56476050     -0.20190135     -1.40953205
C      -2.21140857      0.35241283     -1.88904410
N      -1.15619802      0.23135634     -0.86242829
C       0.10611257      0.77206333     -1.36820670
N       1.19689527      0.46261968     -0.44297195
C       2.42255316      1.18627648     -0.83824571
C       3.60567716      0.89673907      0.10258048
N       3.83610854     -0.53539473      0.28177666
C       5.05492647     -1.03302019      0.70795322
O       5.22790734     -2.18140455      1.09992587
O       6.04836314     -0.10455801      0.63968121
C       7.33044007     -0.57695834      1.06849514
C       8.32154739      0.56305126      0.93677279
C       2.64145971     -1.33369224      0.53912176
C       1.48421125     -0.98992544     -0.41407248
C      -1.59395042      0.93896677      0.36267734
C      -2.92976944      0.39746230      0.89959716
H      -9.00631383     -1.37750605      0.35575343
H      -7.68303684     -2.10466140     -0.58674830
H      -7.38823911     -1.57362157      1.06396093
H      -7.79310038      0.82878378      0.34775290
H      -8.10520125      0.25768508     -1.28846266
H      -3.50745759     -1.29034658     -1.28472317
H      -4.32388222      0.00204554     -2.17169039
H      -2.34005357      1.40473966     -2.17672694
H      -1.91863988     -0.19988542     -2.79016180
H       0.01504367      1.85890122     -1.50015431
H       0.33162019      0.35146573     -2.35773401
H       2.23640786      2.26700400     -0.82660296
H       2.70851001      0.91379027     -1.86327293
H       4.50380046      1.38133265     -0.29406178
H       3.41423207      1.32065523      1.09615754
H       7.27593458     -0.89954762      2.11429474
H       7.64642253     -1.41548617      0.43782902
H       9.32035210      0.25043858      1.25381809
H       8.37233200      0.91175236     -0.10002635
H       8.00857110      1.41806247      1.54515694
H       2.87894149     -2.40010210      0.45543168
H       2.34374958     -1.14549600      1.57839260
H       0.60357058     -1.55130015     -0.08125997
H       1.73806133     -1.34495474     -1.42208259
H      -0.84866450      0.82976645      1.15895613
H      -1.70278339      2.01306797      0.16010949
H      -2.80084903     -0.62758481      1.26947295
H      -3.25859751      1.01105754      1.74577361
