21
COc1ccc(C(=O)O)cc1[N+](=O)[O-]
C      -3.31785449     -0.90384427      0.11431128
O      -2.45554235      0.22792306      0.11940057
C      -1.10951135      0.00351257      0.05658408
C      -0.50840281     -1.25705027      0.10448990
C       0.88853919     -1.38178843      0.06091626
C       1.70923426     -0.24862854     -0.02729708
C       3.17831109     -0.44469944     -0.06608916
O       3.75365932     -1.51507632     -0.01680062
O       3.84998629      0.71416102     -0.16748159
C       1.12829976      1.01910428     -0.07526864
C      -0.26857458      1.12100616     -0.03721203
N      -0.84282128      2.44842360     -0.09988897
O      -0.64192954      3.18932693      0.87247062
O      -1.43803161      2.76149668     -1.13963288
H      -3.17891887     -1.50641532      1.01774069
H      -3.17571117     -1.50556902     -0.78943068
H      -4.34912310     -0.53808782      0.11290426
H      -1.09293140     -2.16928999      0.18302604
H       1.33528987     -2.37531280      0.10073741
H       4.79363585      0.44644471     -0.18150580
H       1.74239693      1.91436320     -0.14197367
