57
CCCCCCCCC(=O)[O-].CCCCCCCCC(=O)[O-].[Ca+2]
C      -4.53044954      0.10646995     -0.00848061
C      -3.05106966      0.46066354     -0.01726624
C      -2.28200724     -0.33290670      1.03965577
C      -0.80841452      0.06880879      1.15000047
C       0.00807894     -0.26345871     -0.10092525
C       1.49170931      0.05250981      0.10595624
C       2.30847090     -0.27334490     -1.14782493
C       3.78835805      0.05749716     -0.97727507
C       4.58178846     -0.83363202     -0.01581837
O       4.10841954     -1.98232440      0.20365778
O       5.63762267     -0.30188931      0.43374383
C      -4.20173323      0.48175402      0.71343854
C      -3.59156146     -0.90771381      0.81390502
C      -2.32480602     -1.08121935     -0.02669714
C      -1.15621550     -0.21689850      0.45209429
C       0.11285612     -0.50626012     -0.35290456
C       1.28198170      0.35875629      0.12129224
C       2.55052123      0.06915505     -0.68298192
C       3.71761157      0.93089016     -0.21167325
C       5.03629673      0.71131456     -0.96023631
O       5.02785349     -0.14996742     -1.88169385
O       5.98816199      1.43742967     -0.55078403
Ca      0.00000000      0.00000000      0.00000000
H      -4.68004387     -0.95758724     -0.21767722
H      -5.06217843      0.68130576     -0.77319757
H      -4.98286883      0.33332906      0.96218305
H      -2.64886770      0.25625844     -1.01512168
H      -2.93794256      1.53511593      0.16736389
H      -2.35566536     -1.40584952      0.82416905
H      -2.75277213     -0.17512605      2.01809038
H      -0.73484267      1.14150509      1.36658170
H      -0.37523031     -0.45700536      2.01001932
H      -0.10968834     -1.32596181     -0.34554949
H      -0.36415092      0.31126636     -0.95623894
H       1.86968468     -0.52041220      0.96047660
H       1.60839105      1.11474835      0.35322524
H       2.18233605     -1.33045566     -1.41018463
H       1.91676732      0.30963827     -1.99057174
H       4.27921573     -0.03205048     -1.95465871
H       3.89534940      1.10359246     -0.66433284
H      -4.39680573      0.75112456     -0.32935043
H      -3.54653676      1.24056314      1.15095793
H      -5.15262164      0.51401195      1.25504838
H      -3.37703205     -1.13690738      1.86418901
H      -4.33510300     -1.63931549      0.47566125
H      -2.54664792     -0.85516090     -1.07681911
H      -2.02970790     -2.13713706      0.01338937
H      -1.40899687      0.84467593      0.35288325
H      -0.96803827     -0.40916392      1.51524223
H       0.37715273     -1.56617048     -0.25430934
H      -0.07628901     -0.31747998     -1.41667558
H       1.01830607      1.41879603      0.02236319
H       1.47035868      0.17013241      1.18521358
H       2.36056291      0.25478196     -1.74736829
H       2.81213532     -0.99181942     -0.58628550
H       3.45277631      1.99087329     -0.31177259
H       3.90552052      0.74095481      0.85243961
