25
Oc1ccc(N=Nc2ccccc2)cc1
O      -5.54176591     -0.51474101     -0.39173510
C      -4.18600480     -0.49347608     -0.25336468
C      -3.56692870      0.31190362      0.69684804
C      -2.17309331      0.29871609      0.80063495
C      -1.39779574     -0.50715262     -0.04694328
N       0.00424922     -0.56187190      0.05661293
N       0.50729709      0.56535653     -0.14683548
C       1.91044323      0.50651862     -0.05909245
C       2.67988776      0.87357807     -1.16832104
C       4.07524624      0.85569855     -1.10495215
C       4.71354975      0.47810470      0.07556847
C       3.95909097      0.12216191      1.19247038
C       2.56403033      0.14126278      1.12585973
C      -2.04470005     -1.31801852     -0.98606110
C      -3.43717661     -1.30898307     -1.09363633
H      -5.92999654      0.10325920      0.24910451
H      -4.14278242      0.94840062      1.36073246
H      -1.68173391      0.92013681      1.54496906
H       2.18438141      1.17192840     -2.08854017
H       4.66161528      1.13748561     -1.97561021
H       5.79946118      0.46369425      0.12588332
H       4.45446589     -0.16865322      2.11507543
H       1.97872687     -0.13112264      2.00010328
H      -1.45712097     -1.95769786     -1.63919525
H      -3.93334626     -1.93648885     -1.82840993
