27
NS(=O)(=O)c1nnc(NS(=O)(=O)c2ccc(Cl)cc2)s1
N       6.25744169     -0.19885643     -0.15986004
S       4.93366403      0.83990184     -0.06415102
O       5.08993038      1.77159852     -1.15899731
O       4.88190984      1.27354428      1.31390579
C       3.45257434     -0.05254355     -0.37145481
N       3.36275115     -1.33137070     -0.68037897
N       2.04455077     -1.70716933     -0.87057264
C       1.22289462     -0.70660048     -0.65522170
N      -0.20513275     -0.88176257     -0.86643234
S      -1.00817148     -1.11519717      0.60469328
O      -0.34577119     -0.40528441      1.67554781
O      -1.30362692     -2.52873668      0.68703629
C      -2.53242334     -0.25844037      0.27443288
C      -2.56106997      1.13808466      0.36250086
C      -3.75638891      1.81740893      0.11841357
C      -4.90973183      1.09981719     -0.20247006
Cl     -6.38039136      1.93999408     -0.50329541
C      -4.88150470     -0.29387928     -0.27803966
C      -3.68951695     -0.98045044     -0.03521436
S       1.96827786      0.78947488     -0.30284350
H       6.68870751     -0.28782591      0.76130169
H       6.90711579      0.14023821     -0.87029967
H      -0.32420502     -1.74647486     -1.39926588
H      -1.66557309      1.69849561      0.62340062
H      -3.78453593      2.90240589      0.18459756
H      -5.78466360     -0.84909524     -0.52014120
H      -3.67711094     -2.06727666     -0.08528104
