39
C=C(C)C(=O)OCCOCCOCCOCC
C       6.42462285     -0.21613879     -0.89171194
C       5.54578204     -0.72197955     -0.00919537
C       5.71042227     -2.08520114      0.59286462
C       4.33289867      0.02418756      0.44192474
O       3.53833073     -0.43281065      1.25127318
O       4.25821837      1.24514984     -0.14548776
C       3.07964142      2.01375528      0.14950688
C       2.06470236      1.86849636     -0.98702031
O       1.61992322      0.52127876     -1.16295777
C       0.61550291      0.11291355     -0.23347049
C      -0.78171114      0.41996547     -0.76927197
O      -1.75941297      0.01996612      0.19041912
C      -3.08617389      0.24455615     -0.28626585
C      -4.08647681     -0.15682989      0.79596764
O      -5.43477739      0.07931547      0.38972330
C      -5.97547816     -0.98651549     -0.38773537
C      -7.40572757     -0.63517865     -0.74789035
H       7.29624868     -0.78271712     -1.20391573
H       6.30462686      0.76882492     -1.33211445
H       5.79251414     -2.01642918      1.68269216
H       4.85307070     -2.72023595      0.34602868
H       6.61088605     -2.58884161      0.22510158
H       2.65231301      1.74194671      1.11995751
H       3.39406209      3.06033742      0.22087607
H       1.21190970      2.53869558     -0.83587586
H       2.54762087      2.15198002     -1.92844268
H       0.76412511      0.55980901      0.75563347
H       0.71293388     -0.97009928     -0.09746407
H      -0.88439944      1.49167956     -0.97308482
H      -0.93839140     -0.11434379     -1.71408131
H      -3.25081386     -0.34077532     -1.19730013
H      -3.22273018      1.30265190     -0.53980204
H      -3.90333788      0.45174899      1.68893437
H      -3.94290182     -1.19932843      1.10555392
H      -5.38977229     -1.12504819     -1.30172311
H      -5.95821808     -1.91431595      0.19443197
H      -8.00444252     -0.48112690      0.15594895
H      -7.44130846      0.29971930     -1.31694728
H      -7.86428202     -1.42906208     -1.34405464
