27
Nc1ccc(S(=O)(=O)N=C2CC=CN2)cc1
N       5.26507455      0.16673224      0.68949175
C       3.94999907     -0.11238756      0.30122804
C       3.15652715     -0.96862744      1.07230637
C       1.80728745     -1.16382114      0.76520550
C       1.23617191     -0.45631272     -0.29431019
S      -0.47834263     -0.71265655     -0.70517610
O      -0.63051155     -0.37695835     -2.10812730
O      -0.83130475     -2.03827546     -0.23371779
N      -1.23680432      0.39689732      0.19698902
C      -2.52316041      0.48226775      0.13485956
C      -3.48625899     -0.36324569     -0.71769754
C      -4.80252252      0.26622261     -0.30079248
C      -4.60440877      1.24647424      0.58923952
N      -3.27845983      1.37925228      0.84896085
C       2.00106772      0.43953454     -1.04378107
C       3.34906317      0.62443332     -0.72506500
H       5.84845010      0.52475815     -0.06043853
H       5.71376213     -0.58965405      1.19690132
H       3.58623368     -1.49583178      1.92041272
H       1.21232089     -1.85201366      1.36098242
H      -3.29956649     -0.22102753     -1.78383417
H      -3.44408452     -1.41675341     -0.43473094
H      -5.76325153     -0.04730879     -0.68159477
H      -5.33842436      1.87791273      1.07026201
H      -2.89640270      2.05745763      1.49098551
H       1.55744576      1.00358269     -1.86084509
H       3.93009977      1.34934862     -1.28966270
