24
O=C(O)CCCc1ccccc1
O       2.54819988      1.94020931     -1.27888246
C       2.55607668      1.32447195     -0.22712163
O       3.00881442      1.90573305      0.90118718
C       2.13171583     -0.10013977      0.00554747
C       1.40850126     -0.71356827     -1.19563087
C       0.04484953     -0.08458099     -1.51338710
C      -0.96690248     -0.22997029     -0.40358255
C      -1.36356020      0.88584036      0.34595445
C      -2.29147777      0.75041605      1.37978870
C      -2.83282420     -0.49965366      1.67304198
C      -2.44820605     -1.61523040      0.93194206
C      -1.52019197     -1.48182870     -0.10201213
H       3.26504304      2.80844171      0.61882929
H       1.50026997     -0.14293380      0.89864899
H       3.04009732     -0.68063046      0.20374939
H       2.04417908     -0.62519204     -2.08569370
H       1.28191526     -1.78751203     -1.01056364
H       0.16417230      0.97294759     -1.77584907
H      -0.36518715     -0.56221316     -2.41290592
H      -0.95172561      1.86916663      0.12950072
H      -2.59280613      1.62145046      1.95567444
H      -3.55601946     -0.60394393      2.47739645
H      -2.87227540     -2.58998643      1.15802847
H      -1.23265815     -2.36129317     -0.67366049
