32
Brc1cccc(Nc2ncnc3cc4[nH]ccc4cc23)c1
Br      5.59178256      1.59935092     -1.81951702
C       4.70530739      0.52052812     -0.54314588
C       5.44899294     -0.31593200      0.28465212
C       4.79123762     -1.12508803      1.20683304
C       3.39710112     -1.08252927      1.30314001
C       2.63800462     -0.21497739      0.50010025
N       1.22798930     -0.25708719      0.59132161
C       0.29072727      0.76592300      0.27506969
N       0.72914704      2.02517485      0.09683241
C      -0.19446433      2.95351942     -0.15910460
N      -1.51211534      2.75174560     -0.25284515
C      -1.94144078      1.49851641     -0.08950156
C      -3.30856048      1.26793783     -0.19305084
C      -3.80715915     -0.03123415     -0.03884297
N      -5.09712886     -0.50695629     -0.09928581
C      -5.10695685     -1.86175390      0.10505454
C      -3.80639559     -2.26876098      0.29927445
C      -2.97754534     -1.11799474      0.21305867
C      -1.59456274     -0.88918341      0.31934481
C      -1.07488148      0.42860244      0.17719074
C       3.31264844      0.56326156     -0.44821209
H       6.53230605     -0.35173410      0.21075358
H       5.36046205     -1.79357379      1.84750309
H       2.90732829     -1.73561150      2.02129555
H       0.92303388     -0.72068269      1.44091899
H       0.15805834      3.96923832     -0.30134715
H      -3.97709459      2.09953218     -0.39707770
H      -5.91365582      0.06353137     -0.27371272
H      -6.03510019     -2.41750112      0.09177239
H      -3.48576909     -3.28598961      0.48293999
H      -0.93465902     -1.73381301      0.49327310
H       2.75336276      1.20354114     -1.12422187
