12
CC(=O)C(C)=O
C       1.95007817     -0.06135819     -0.19034542
C       0.60413983      0.12232413      0.44514029
O       0.43940860      0.45047660      1.61319614
C      -0.60413970     -0.12232564     -0.44513984
C      -1.95007808      0.06135968      0.19034491
O      -0.43940846     -0.45048314     -1.61319442
H       2.05883852     -1.09166075     -0.53807257
H       2.06591707      0.63714177     -1.02277884
H       2.73116295      0.14236636      0.54768424
H      -2.05883516      1.09166161      0.53807619
H      -2.06592088     -0.63714338      1.02277576
H      -2.73116288     -0.14235904     -0.54768643
