15
Oc1cccc(N=C=S)c1
O      -2.13555164     -1.74117015      0.48940810
C      -1.26596570     -0.71782965      0.25207547
C      -1.52067931      0.56983400      0.71336371
C      -0.60845035      1.58790971      0.43731197
C       0.55224511      1.30833092     -0.28870458
C       0.82034874      0.00629905     -0.73388420
N       1.97759764     -0.25904177     -1.48610544
C       2.86292573     -0.63706852     -0.81231298
S       4.23772986     -1.21157157      0.19944225
C      -0.11248707     -1.00411168     -0.47186910
H      -2.89527689     -1.39831607      0.98845075
H      -2.41947128      0.79925640      1.27744474
H      -0.80134276      2.60099989      0.78146874
H       1.25149091      2.11070572     -0.51201521
H       0.05688701     -2.01422630     -0.83407423
