26
O=C(Oc1cccc(N=C=S)c1)c1cccnc1
O       0.24723317      0.56141457      1.82865394
C       0.82954264      0.22728962      0.80840384
O       0.27454140      0.00634664     -0.43811690
C      -1.11041514      0.19056774     -0.47753755
C      -1.60690247      1.30073956     -1.15632424
C      -2.98522016      1.47477092     -1.25752802
C      -3.85023338      0.53740868     -0.68482468
C      -3.34814731     -0.57831255      0.00315236
N      -4.22439905     -1.53385743      0.54491694
C      -4.51563395     -1.28410648      1.65582089
S      -4.99050652     -0.92798568      3.35582432
C      -1.96342262     -0.76201239      0.08000564
C       2.29074651      0.00084028      0.74867729
C       2.97236200     -0.41016354     -0.40094393
C       4.35341170     -0.59595144     -0.34914814
C       5.00631248     -0.36444850      0.85108214
N       4.37897319      0.03245557      1.97892504
C       3.03537109      0.20599450      1.90368504
H      -0.93000976      2.02224590     -1.60418731
H      -3.38906954      2.33492090     -1.78563127
H      -4.92505220      0.67467886     -0.77985175
H      -1.55673697     -1.63707253      0.57759240
H       2.45032971     -0.59026202     -1.33669384
H       4.90816838     -0.91478338     -1.22527286
H       6.08137779     -0.49599190      0.94019390
H       2.56737901      0.52527410      2.83259405
