23
CCCCCCCCl
C      -3.76026928      0.52301342      0.21427775
C      -2.55505789     -0.39361532      0.07730700
C      -1.24930670      0.39997023      0.03956803
C      -0.03943829     -0.52575396     -0.09837433
C       1.26816408      0.26866889     -0.13580308
C       2.47724840     -0.66132924     -0.27351238
C       3.81244927      0.07508914     -0.23252994
Cl      4.04046657      1.12535547     -1.64967590
H      -3.82286786      1.21752417     -0.62956648
H      -3.70524468      1.10807190      1.13786608
H      -4.68292868     -0.06519340      0.23925372
H      -2.53999282     -1.09587906      0.91891322
H      -2.65694099     -0.98700947     -0.83877549
H      -1.27138741      1.10377614     -0.80140649
H      -1.15422040      0.99481838      0.95617969
H      -0.13410603     -1.12001021     -1.01538936
H      -0.01820653     -1.22949945      0.74262464
H       1.23541993      0.97464004     -0.97331293
H       1.36377281      0.85995380      0.78297774
H       2.39852317     -1.23940047     -1.20251259
H       2.46246755     -1.38612328      0.54997431
H       3.89396229      0.69642024      0.66449804
H       4.63749350     -0.64348796     -0.22688530
