39
CC(C)(C)c1nc(-c2ccsc2)c2c(N)c(C#N)c(N)nc2n1
C      -3.75854026      1.45053898      0.50379127
C      -3.10931631      0.15387130     -0.01857349
C      -3.43474568     -0.01113291     -1.51187719
C      -3.71085437     -1.02824130      0.76703991
C      -1.59230996      0.19918579      0.14223713
N      -0.93384081     -0.94869763      0.28805370
C       0.41044400     -0.87746633      0.37847936
C       1.00559952     -2.20227656      0.49232584
C       1.72430952     -2.92157008     -0.51549132
C       2.13262455     -4.16310209     -0.07955285
S       1.62962277     -4.47793814      1.52458782
C       0.84989276     -2.95834234      1.63836790
C       1.15538010      0.32090801      0.34245800
C       2.57500122      0.54760381      0.48705098
N       3.48743611     -0.52453319      0.62758013
C       3.06861046      1.85107728      0.28919298
C       4.47083803      2.13564195      0.33304760
N       5.61523493      2.33070927      0.36634314
C       2.16248684      2.87604975      0.07104223
N       2.53746540      4.21120012     -0.06217824
N       0.84025648      2.66511767      0.02812327
C       0.34245605      1.43877767      0.14430158
N      -0.97612215      1.37971827      0.04533310
H      -3.42706942      2.32900190     -0.06244666
H      -4.85077915      1.40630417      0.42207101
H      -3.50898359      1.62261965      1.55766935
H      -3.00189709     -0.93403742     -1.91613013
H      -3.03604816      0.82230161     -2.10259765
H      -4.51708321     -0.05000833     -1.67943390
H      -3.45824928     -0.96637768      1.83233936
H      -4.80370110     -1.04337536      0.68314947
H      -3.34454678     -1.99269418      0.39588663
H       1.93854041     -2.54123948     -1.50744029
H       2.69629499     -4.90540736     -0.62839790
H       0.31685428     -2.69386620      2.54237955
H       4.42218557     -0.28645896      0.95682607
H       3.14058793     -1.34055795      1.12578663
H       1.69538609      4.75567556     -0.24379722
H       3.24657932      4.37102076     -0.77064705
