30
NS(=O)(=O)c1nnc(NS(=O)(=O)Cc2ccccc2)s1
N       6.20533768     -1.65456044     -0.08234856
S       5.53633482     -0.12275165     -0.33231338
O       5.95122639      0.69131970      0.78702406
O       5.79710408      0.23386479     -1.70812905
C       3.78866367     -0.27874685     -0.20125017
N       3.13954972     -1.41566384     -0.04448859
N       1.77430796     -1.19964055      0.00284911
C       1.48068039      0.07937398     -0.07782989
N       0.08505904      0.49461504     -0.11132161
S      -0.36085344      1.23437403      1.34414383
O      -0.47700512      0.18853248      2.33851243
O       0.50254474      2.37521469      1.56778576
C      -2.00194270      1.87062099      0.96856668
C      -2.85418354      0.80613803      0.32697140
C      -3.41386894     -0.22553556      1.09433263
C      -4.18301058     -1.22022652      0.48948791
C      -4.40627770     -1.19194910     -0.88522398
C      -3.86313023     -0.16763027     -1.65732802
C      -3.09248235      0.82807807     -1.05581405
S       2.81840433      1.11629482     -0.31688471
H       6.17635553     -1.90925405      0.90508816
H       5.78831173     -2.35369902     -0.69728344
H      -0.47738258     -0.35384462     -0.22550916
H      -1.87597264      2.73650206      0.31037833
H      -2.44670367      2.21719742      1.90683063
H      -3.25028224     -0.26990358      2.17077264
H      -4.60950095     -2.01833211      1.09279529
H      -5.00817785     -1.96666450     -1.35395880
H      -4.04365348     -0.14338937     -2.72947163
H      -2.67945205      1.61966591     -1.67900674
