32
CCCOCC(O)COCCC
C      -4.67793558      0.35983987      1.40765059
C      -4.58503586      0.99793208      0.02877019
C      -3.53289789      0.32938743     -0.84906451
O      -2.24532572      0.51114723     -0.26102386
C      -1.21469095     -0.11136860     -1.04176266
C       0.12121406      0.13683488     -0.33443926
O       0.02169305     -0.40912012      0.99331709
C       1.27950369     -0.52605450     -1.09045338
O       2.55833583      0.03989293     -0.77692100
C       2.99516823     -0.23942180      0.55262226
C       4.46711128      0.14171025      0.68281352
C       5.36439558     -0.70368269     -0.21002692
H      -5.46015546      0.84832222      1.99728787
H      -3.73503407      0.45490311      1.95530694
H      -4.92527845     -0.70373018      1.33064610
H      -4.33896168      2.05887985      0.15332936
H      -5.56157575      0.93695198     -0.46398138
H      -3.54325987      0.78839487     -1.84411294
H      -3.74695760     -0.74076869     -0.95099332
H      -1.42124764     -1.18652157     -1.09837883
H      -1.20534188      0.31800174     -2.04955322
H       0.29833353      1.21185413     -0.21676663
H      -0.82507442     -0.06187586      1.33967228
H       1.31129159     -1.60699343     -0.90954066
H       1.15021026     -0.37227838     -2.16709884
H       2.41533698      0.36299321      1.25861752
H       2.85894832     -1.30151310      0.78630351
H       4.59959121      1.19531950      0.41060446
H       4.78182650      0.02372402      1.72555216
H       5.11828358     -0.56583671     -1.26753609
H       6.41208422     -0.41990888     -0.06867964
H       5.26544494     -1.76701476      0.03045256
