38
CCCCCCCCCCCC(=O)O
C       5.21026318      0.93967577      0.79271353
C       4.44711743      1.67839753     -0.29582444
C       3.43972668      0.79938769     -1.04005318
C       2.28794931      0.31562992     -0.15622191
C       1.25569722     -0.46730440     -0.97101170
C       0.10432446     -0.95495844     -0.08861845
C      -0.93074023     -1.72975882     -0.90666160
C      -2.04913310     -2.34020690     -0.05616662
C      -2.87257414     -1.35026022      0.77404477
C      -3.58187562     -0.28878839     -0.07245092
C      -4.49815574      0.60173473      0.76306292
C      -3.73701359      1.47928080      1.71638035
O      -3.77482901      1.42247867      2.93390607
O      -2.97534176      2.39751029      1.09352417
H       5.97962095      1.59113022      1.21963919
H       4.54918531      0.63122556      1.60778089
H       5.70494366      0.04962503      0.39131232
H       3.93615481      2.54454475      0.14047774
H       5.16923201      2.06967722     -1.02242738
H       3.03061252      1.38053097     -1.87584543
H       3.95731368     -0.06257769     -1.47844427
H       2.67279591     -0.32540258      0.64480618
H       1.80316316      1.17650782      0.31977162
H       0.85955818      0.16918201     -1.77163164
H       1.74142579     -1.32603981     -1.45018835
H       0.49850864     -1.59676391      0.70841836
H      -0.36731402     -0.09038515      0.39188495
H      -0.42790626     -2.54635568     -1.44014731
H      -1.35817681     -1.07867052     -1.67783855
H      -1.61121499     -3.08080014      0.62477102
H      -2.72457451     -2.89494581     -0.71938274
H      -3.62385138     -1.92138677      1.33408056
H      -2.23145884     -0.87204624      1.52284895
H      -2.84439175      0.33057697     -0.59464293
H      -4.18563177     -0.78685218     -0.84058053
H      -5.20565205     -0.00519262      1.33945462
H      -5.09640186      1.25069233      0.11323776
H      -2.55135547      2.89090799      1.82668330
