18
Cc1cccc(C)c1
C       2.52281777     -0.85718081      0.11929484
C       1.21956541     -0.12812196     -0.02153437
C       1.20040195      1.25533614     -0.22955837
C      -0.01257328      1.93762188     -0.32161134
C      -1.21680538      1.24446408     -0.20055875
C      -1.21852906     -0.13908797      0.00771638
C      -2.51141816     -0.87982288      0.17969324
C       0.00502679     -0.81463920      0.11357748
H       3.30769761     -0.37267971     -0.47100329
H       2.83001434     -0.87489716      1.16945129
H       2.43483775     -1.88724262     -0.24187999
H       2.13110570      1.81076457     -0.31797114
H      -0.01933627      3.01237428     -0.48239951
H      -2.15432033      1.79148951     -0.26655847
H      -2.42286412     -1.90909585     -0.18358340
H      -3.31455618     -0.40247301     -0.39156602
H      -2.79316844     -0.90017230      1.23691305
H       0.01210391     -1.88663697      0.30157836
