33
Cc1c2ccccc2cc2c1cc(F)c1ccccc12
C      -2.10455709     -2.56274074      0.00646364
C      -1.46857936     -1.18502865      0.00693034
C      -2.30050379     -0.02330648     -0.00671163
C      -3.71792887     -0.04167591     -0.07510249
C      -4.48047276      1.12980003     -0.06866850
C      -3.84984973      2.36094459      0.00190015
C      -2.45996450      2.41426415      0.05568205
C      -1.68289254      1.24098702      0.04491956
C      -0.28398721      1.33425285      0.07915356
C       0.57666237      0.21545944      0.03639583
C      -0.03811889     -1.06460951     -0.01743324
C       0.80908982     -2.18542381     -0.10183962
C       2.19241448     -2.06289148     -0.10724503
F       2.92416537     -3.18658781     -0.18825763
C       2.81817950     -0.82322352     -0.03289092
C       4.22411455     -0.74300697     -0.03511107
C       4.87413115      0.48423479      0.03441361
C       4.12304807      1.64570035      0.10637715
C       2.72539227      1.57464911      0.10833303
C       2.02044989      0.34242851      0.03927001
H      -3.09826464     -2.56751675      0.46076887
H      -1.53421127     -3.26824452      0.61839124
H      -2.17782487     -2.94089695     -1.01758200
H      -4.26343083     -0.97819683     -0.14802492
H      -5.56447883      1.07281436     -0.12135362
H      -4.43327419      3.27733305      0.00818014
H      -1.98139554      3.39067603      0.10117994
H       0.13896464      2.33461254      0.12082880
H       0.41963111     -3.19553523     -0.17857219
H       4.82230865     -1.65142156     -0.09223690
H       5.95962626      0.52956796      0.03199794
H       4.61726418      2.61235392      0.16152223
H       2.19429258      2.52022800      0.16832166
