22
N=C(N)N/N=C/c1c(Cl)cccc1Cl
N       4.50937708     -1.56037469     -0.50835252
C       3.50060486     -0.96292664      0.01867651
N       3.59490557     -0.27784259      1.18593981
N       2.25671696     -0.96328972     -0.53071090
N       1.17297712     -0.32257807     -0.00711063
C       0.06445771     -0.52065448     -0.64658344
C      -1.21055457      0.10688516     -0.23543086
C      -1.54069739      0.33258307      1.11125768
Cl     -0.54931564     -0.15893603      2.44173630
C      -2.75998618      0.93901814      1.44454834
C      -3.65861969      1.31759795      0.44996725
C      -3.34409100      1.08671419     -0.88603820
C      -2.12867153      0.48330719     -1.23076996
Cl     -1.82169052      0.26814768     -2.92112922
H       5.29592593     -1.38343084      0.12817077
H       3.16555721      0.63096023      1.01315918
H       2.87780623     -0.66096973      1.80177862
H       2.20670254     -1.48303061     -1.40465796
H       0.04086564     -1.15524562     -1.55052999
H      -3.01931368      1.11161291      2.48784228
H      -4.60288562      1.78740223      0.71684503
H      -4.05007104      1.38505028     -1.65896101
