22
Clc1cc(Cl)c(Cl)c(-c2c(Cl)ccc(Cl)c2Cl)c1
Cl     -3.63567418      2.73166932      0.26202247
C      -2.80934728      1.23610985      0.06652956
C      -3.53416317      0.07098459     -0.15531023
C      -2.86141921     -1.14282993     -0.31303715
Cl     -3.82929725     -2.55118604     -0.58475403
C      -1.45856662     -1.19276406     -0.24908656
Cl     -0.62061158     -2.70362101     -0.44475394
C      -0.71912805     -0.00918237     -0.02406508
C       0.75891197      0.00288993      0.05439585
C       1.41803945     -0.18491067      1.28872953
Cl      0.53846506     -0.41961269      2.76263363
C       2.81301615     -0.18665772      1.37299799
C       3.58170433      0.00031116      0.22709731
C       2.95947191      0.19183277     -1.00754932
Cl      3.98628316      0.42284191     -2.38006951
C       1.55661115      0.19501522     -1.10031814
Cl      0.78860166      0.44120869     -2.64420815
C      -1.41771060      1.20335307      0.13263663
H      -4.61976933      0.10628754     -0.20541770
H       3.30728941     -0.33561121      2.33103306
H       4.66713577     -0.00446509      0.30329542
H      -0.86984275      2.12833676      0.30719836
