22
CCCCCCC=O
C      -3.61285794      0.35010975      0.10252265
C      -2.33850524     -0.38730272      0.48167920
C      -1.09870124      0.31849041     -0.06692410
C       0.18098605     -0.42640460      0.31665294
C       1.42141682      0.27946941     -0.23203942
C       2.69748854     -0.46328174      0.15043175
C       3.94147821      0.20987620     -0.37746019
O       3.95046448      1.24023322     -1.04237087
H      -3.61087516      1.36865449      0.50364468
H      -3.72328586      0.40898011     -0.98498635
H      -4.48674142     -0.17172637      0.50492354
H      -2.27483835     -0.45695910      1.57383245
H      -2.38661844     -1.41132812      0.09339893
H      -1.05761028      1.34356341      0.32116376
H      -1.16938471      0.38924027     -1.15920314
H       0.13978206     -1.45136439     -0.07166215
H       0.25156826     -0.49690401      1.40893360
H       1.46282253      1.30640436      0.15201444
H       1.35135321      0.35463812     -1.32439807
H       2.79328837     -0.52377223      1.23988140
H       2.68090680     -1.48325424     -0.24846413
H       4.88786329     -0.29736225     -0.12192384
