19
Cc1cccc(CO)c1
C       2.63389185     -0.86721553      0.06211981
C       1.34971533     -0.09172493      0.05255414
C       1.31849659      1.23276274      0.50280572
C       0.11747682      1.94166186      0.52925964
C      -1.06480699      1.33118021      0.11209109
C      -1.05526341      0.00595309     -0.34014849
C      -2.33597416     -0.66897066     -0.75063508
O      -2.94008050     -1.31617408      0.36129845
C       0.15521254     -0.70300141     -0.35128593
H       2.75590628     -1.37687824      1.02277548
H       2.64509922     -1.61351338     -0.73920490
H       3.49139486     -0.20547404     -0.09912918
H       2.23105551      1.72042975      0.83839567
H       0.10282055      2.97027757      0.88051778
H      -1.99577780      1.89326335      0.14652993
H      -2.14994029     -1.41508887     -1.53034844
H      -3.04614318      0.05779008     -1.15894928
H      -2.37878414     -1.15335902      1.13899795
H       0.16570092     -1.74191851     -0.67764435
