19
COc1c(Cl)ccc(Cl)c1C(=O)O
C      -2.55847947      0.38583572      0.42253630
O      -1.59997548      0.34943040     -0.63900838
C      -0.44385783     -0.26986464     -0.23259934
C      -0.29483782     -1.65696883     -0.35914184
Cl     -1.55150453     -2.65387988     -0.99714735
C       0.90208506     -2.27152987      0.01794555
C       1.96131898     -1.50335124      0.50667064
C       1.83377817     -0.11511047      0.60545995
Cl      3.17771899      0.77245310      1.22955386
C       0.63800350      0.50040091      0.21972217
C       0.49434280      1.95588050      0.29862317
O      -0.15653617      2.57050987      1.12006281
O       1.17216831      2.54944875     -0.69782380
H      -3.00791061     -0.60020204      0.57442709
H      -3.35320921      1.07848342      0.13011386
H      -2.12307376      0.74488016      1.36121772
H       1.01894923     -3.34944549     -0.07276253
H       2.88689041     -1.99399615      0.80102397
H       1.00412942      3.50702576     -0.57471749
