27
O=[N+]([O-])c1ccc(O)c([N+](=O)[O-])c1-c1ccccc1
O      -0.63550049      3.27708965     -0.19235635
N      -0.65208920      2.45262346      0.72987178
O      -0.21472236      2.62083207      1.87468932
C      -1.29378788      1.18187520      0.45633131
C      -2.68221416      1.12330442      0.65148199
C      -3.34590708     -0.08220086      0.44440481
C      -2.62928902     -1.20644296      0.03986243
O      -3.36660946     -2.35015151     -0.10730263
C      -1.24256494     -1.11601536     -0.18749025
N      -0.56475184     -2.29853732     -0.69294183
O      -0.78968595     -3.36031136     -0.09117949
O       0.11699952     -2.18611357     -1.71773877
C      -0.52403324      0.07834330      0.03687692
C       0.93782527      0.17204279     -0.10432337
C       1.78328763     -0.30133037      0.91199365
C       3.17053753     -0.20523217      0.78576712
C       3.72959583      0.36550463     -0.35509243
C       2.90382753      0.84188971     -1.37045969
C       1.51640204      0.74717872     -1.24652135
H      -3.23973429      2.00061208      0.97492594
H      -4.42015104     -0.15066641      0.60598178
H      -2.78799389     -3.14032514     -0.07479590
H       1.37218991     -0.74173205      1.81858205
H       3.81599215     -0.57287136      1.57975765
H       4.80975378      0.44036900     -0.45297077
H       3.33990010      1.28705422     -2.26144153
H       0.89272357      1.12321121     -2.05591240
