51
CCCCCCCCOCCCCCCCC
C      -7.19799828     -1.57394038      0.22758994
C      -6.08397709     -2.57253072      0.50098015
C      -4.73312705     -2.15700220     -0.08542265
C      -4.15555735     -0.89405716      0.55758931
C      -2.75843255     -0.58406386      0.01263242
C      -2.18419203      0.68313175      0.64987524
C      -0.74392347      0.97681926      0.22738859
C      -0.59724851      1.31298516     -1.25551910
O       0.76369736      1.60849402     -1.56963261
C       1.10394256      2.97737851     -1.36286342
C       2.59032645      3.18260520     -1.64600706
C       3.51802621      2.72363055     -0.51357861
C       3.47554647      1.21965422     -0.23481741
C       4.55354084      0.81387743      0.77413497
C       4.46705638     -0.65536661      1.19761590
C       4.74530202     -1.63474168      0.05676899
C       4.75954067     -3.07290171      0.55225254
H      -7.02193317     -0.62518680      0.74270333
H      -7.29308268     -1.37443054     -0.84438023
H      -8.15382703     -1.97123559      0.58413626
H      -5.98996427     -2.72721260      1.58213598
H      -6.36829323     -3.53840639      0.06650433
H      -4.83206919     -2.00939324     -1.16777770
H      -4.02879809     -2.98602850      0.05703216
H      -4.81309649     -0.03923237      0.36355281
H      -4.10455774     -1.02610774      1.64507151
H      -2.09036576     -1.43059195      0.21197470
H      -2.81769630     -0.46443691     -1.07491393
H      -2.20455775      0.57523516      1.74150282
H      -2.82081552      1.54229960      0.40594165
H      -0.09670985      0.12549398      0.47286907
H      -0.36861692      1.81067309      0.83181507
H      -0.87024372      0.44385939     -1.86165546
H      -1.25290594      2.14021431     -1.55154206
H       0.86149477      3.29296716     -0.34289265
H       0.52115287      3.58601669     -2.06384053
H       2.76636678      4.25354868     -1.80380040
H       2.86926075      2.66461176     -2.57143774
H       3.27162180      3.27289182      0.40350117
H       4.54303583      3.00836176     -0.78274807
H       2.49529147      0.94268484      0.16672703
H       3.61705264      0.67459183     -1.17433643
H       5.54721505      1.01824242      0.35723006
H       4.45443479      1.43465865      1.67335588
H       3.47723179     -0.85674449      1.62528492
H       5.19665169     -0.82292671      1.99975190
H       5.71206837     -1.40428897     -0.40537121
H       3.98021301     -1.54105064     -0.72119697
H       4.95619372     -3.75787690     -0.27846778
H       3.79623165     -3.34423049      0.99588779
H       5.53949409     -3.22094210      1.30597494
