15
Nc1nc2cncnc2[nH]1
N      -2.98790654     -0.10321971      0.01990114
C      -1.65597244      0.03856301      0.02365554
N      -0.98068615      1.16263677      0.00804577
C       0.34038280      0.78175270      0.02559411
C       1.53511317      1.49254046      0.02222562
N       2.71385809      0.81562555      0.04311555
C       2.66672490     -0.53607440      0.06854296
N       1.57722571     -1.33256930      0.07436515
C       0.45424167     -0.59817970      0.05185267
N      -0.83090199     -1.05390441      0.05292940
H      -3.41994064     -0.92521615     -0.38725643
H      -3.50773578      0.74676044     -0.18695896
H       1.58004000      2.57335450      0.00365522
H       3.62743459     -1.04295319      0.08629873
H      -1.11187739     -2.01911657      0.09403353
