14
O=C(O)CC(Br)C(=O)O
O       1.53909170      1.29112255     -0.19678457
C       1.51651850      0.07283485     -0.17072924
O       2.55694516     -0.64736258     -0.62975931
C       0.41991322     -0.79725223      0.36676489
C      -0.78081067      0.05605003      0.73972505
Br     -2.09325303     -1.07738334      1.65593692
C      -1.51912560      0.67829878     -0.42590025
O      -2.39200106      1.53017835     -0.34878652
O      -1.17173740      0.19548489     -1.63552356
H       3.20087590      0.02013059     -0.94822371
H       0.16211581     -1.54992338     -0.38718240
H       0.81235295     -1.31450939      1.25024093
H      -0.50595948      0.84807991      1.44402200
H      -1.74492599      0.69425097     -2.25749768
