29
O=C(O)CC1(O)CC(=O)N(c2ccccc2)C1=O
O       3.84772027      0.63695037      1.21223018
C       3.79448061      0.30508803      0.03842991
O       4.55698577      0.90338214     -0.89332172
C       2.96193373     -0.81176225     -0.52508320
C       1.69529042     -1.04025653      0.30031153
O       2.00796553     -1.31840864      1.66449776
C       0.88910787     -2.21093139     -0.22985843
C      -0.53072345     -1.79750258      0.03311649
O      -1.44186895     -2.61482774      0.00424014
N      -0.57989968     -0.43202403      0.22275047
C      -1.77826351      0.34110195      0.35327158
C      -1.73691169      1.69292903      0.73820815
C      -2.90362715      2.45659567      0.87345729
C      -4.14532024      1.88470928      0.63031736
C      -4.21786725      0.54952785      0.25538882
C      -3.04884906     -0.21150496      0.12112764
C       0.69212675      0.10198068      0.17333366
O       1.03510842      1.26822871      0.02594578
H       5.03212122      1.61171189     -0.40890672
H       2.69840419     -0.56479246     -1.56047612
H       3.59064391     -1.70947589     -0.52337070
H       2.52621665     -0.55850814      2.01211628
H       0.99990046     -2.35048686     -1.31080597
H       1.10696846     -3.14565885      0.29584568
H      -0.80112775      2.19509301      0.96744787
H      -2.83391240      3.49898781      1.17500099
H      -5.05153888      2.47485482      0.73584863
H      -5.18455650      0.08962340      0.06412194
H      -3.18050773     -1.24462429     -0.18589224
