20
O=CCc1ccc2c(c1)OCO2
O      -4.16634306     -1.20892213     -0.60832072
C      -3.18768231     -0.49222009     -0.80054392
C      -2.50490869      0.28858955      0.29141078
C      -1.01513711      0.05742804      0.29572156
C      -0.49024704     -1.14904667      0.81515650
C       0.88652164     -1.39442451      0.81387790
C       1.70999612     -0.42379010      0.28806094
C       1.20937317      0.75019266     -0.22197729
C      -0.14311850      1.02148791     -0.23514256
O       2.18677180      1.57012444     -0.69296939
C       3.36130188      0.77888122     -0.41480405
O       3.06523810     -0.49049509      0.20341845
H      -2.79052294     -0.34381494     -1.81972754
H      -2.92853333      0.00485351      1.26142285
H      -2.73084553      1.34945712      0.13648759
H      -1.16001303     -1.90448364      1.22511055
H       1.29385286     -2.31689642      1.21228837
H      -0.50461745      1.95893162     -0.64478767
H       4.01820100      1.34918873      0.25210856
H       3.89071242      0.59495877     -1.35679091
