22
CC(=O)N1C[C@@H](O)C[C@H]1C(=O)[O-]
C       2.46295314      1.15520833      0.46289635
C       1.92603101     -0.23990414      0.27475742
O       2.64872493     -1.22046533      0.46909727
N       0.61940610     -0.35892316     -0.13115955
C      -0.02626881     -1.65697844     -0.22253963
C      -1.50355257     -1.37136835     -0.49688078
O      -2.28603855     -1.43868372      0.69230114
C      -1.50736074      0.03687813     -1.09231376
C      -0.33052139      0.74046384     -0.40605052
C      -0.83118170      1.50917597      0.85261104
O      -0.50387290      2.72858586      0.89751373
O      -1.50100151      0.81948166      1.67820784
H       3.54705365      1.10568540      0.60558882
H       2.27237871      1.77128999     -0.41851380
H       2.02065278      1.60763090      1.35309064
H       0.13962687     -2.22346161      0.69926783
H       0.43581303     -2.18680380     -1.06270737
H      -1.92570440     -2.10506818     -1.19004888
H      -2.03261978     -0.65185065      1.24950201
H      -2.46006792      0.55697014     -0.95045183
H      -1.30253348     -0.02895265     -2.16813567
H       0.13808352      1.45108984     -1.09603229
