22
COc1cc([N+](=O)[O-])c(OC)cc1Cl
C       3.73680484     -0.57657433      0.02633496
O       2.88017662      0.50920589      0.35778985
C       1.53029572      0.32850301      0.21688900
C       0.93512934     -0.83412778     -0.27059624
C      -0.46400248     -0.89752808     -0.37225643
N      -1.03847445     -2.12069070     -0.89686646
O      -1.61207091     -2.05724779     -1.99213484
O      -0.85184814     -3.15147486     -0.23524560
C      -1.30086377      0.15903154      0.00623542
O      -2.64951196     -0.03047905     -0.09957089
C      -3.50046786      1.07668126      0.17579330
C      -0.69541915      1.31888522      0.49141212
C       0.70286341      1.40262538      0.59235661
Cl      1.37323489      2.87682758      1.20494406
H       4.76657408     -0.26101206      0.21944296
H       3.53118391     -1.44805623      0.65650575
H       3.65894647     -0.82847503     -1.03629432
H       1.52276184     -1.69401700     -0.57757679
H      -3.27781506      1.92088088     -0.48509788
H      -3.43393546      1.36905028      1.22870055
H      -4.53044711      0.76278497     -0.01880388
H      -1.28311475      2.17520690      0.80803876
