52
CCCCCCCCNC(=O)OCC1OC(O)C(O)C(O)C1O
C       8.64671802     -0.55472866      1.24999856
C       8.30901179      0.17630284     -0.04022559
C       6.83465945      0.57488354     -0.14761609
C       5.88940302     -0.62740272     -0.21963455
C       4.44242084     -0.24476110     -0.55188153
C       3.76364657      0.57273605      0.55038118
C       2.31774970      0.95342021      0.21895473
C       1.37070019     -0.24130990      0.16472946
N       0.00298334      0.18568688     -0.02918516
C      -0.96389812     -0.68412146     -0.43453061
O      -0.77798685     -1.82502285     -0.82624103
O      -2.17387055     -0.08310377     -0.31912201
C      -3.27596341     -0.91875181     -0.69514767
C      -4.57886306     -0.12236928     -0.57654096
O      -5.66061250     -0.94467950     -1.03684088
C      -6.89695987     -0.23868822     -1.11708588
O      -7.87370844     -1.17773173     -1.54549604
C      -7.32654965      0.34498432      0.24470806
O      -8.43736533      1.24502020      0.09449349
C      -6.17152733      1.11126620      0.89748798
O      -6.53125812      1.42202838      2.25344339
C      -4.87024711      0.30589345      0.86860677
O      -5.03759856     -0.83385027      1.73099328
H       9.72571458     -0.72954965      1.31103531
H       8.15044725     -1.52825412      1.30101759
H       8.34885736      0.03270396      2.12420533
H       8.91941064      1.08558789     -0.09585169
H       8.59086238     -0.44673458     -0.89698017
H       6.70985087      1.18562581     -1.05014671
H       6.57405050      1.21071454      0.70591658
H       5.90620916     -1.17911589      0.72721872
H       6.24586817     -1.31615786     -0.99556401
H       4.41668420      0.31189486     -1.49639558
H       3.88472007     -1.17349439     -0.71629852
H       4.32121624      1.50190066      0.71308759
H       3.79018181      0.01679703      1.49530404
H       2.28435157      1.49739842     -0.73327795
H       1.96372008      1.65539153      0.98505092
H       1.63906500     -0.92397131     -0.64786034
H       1.40504161     -0.80644344      1.10282520
H      -0.34106395      1.00377396      0.45332373
H      -3.15255257     -1.25106479     -1.73383978
H      -3.30777635     -1.81202214     -0.05918289
H      -4.50038288      0.76714172     -1.21600299
H      -6.83307940      0.55217915     -1.87468718
H      -7.73915508     -1.28111660     -2.50094510
H      -7.67084441     -0.46099156      0.90462173
H      -8.58466052      1.62517677      0.98281926
H      -6.03146395      2.07097395      0.38573588
H      -6.24483678      0.65082534      2.78651225
H      -4.05566096      0.90405251      1.29000489
H      -5.41565865     -1.55892254      1.19287048
