17
Cc1ccc(C)nc1
C      -2.80783635     -0.21017999      0.17707447
C      -1.32306186     -0.10480039      0.04012877
C      -0.58166532      0.78341918      0.81813176
C       0.80420924      0.82722661      0.68434248
C       1.41953273     -0.03059797     -0.22186771
C       2.90908355     -0.00730270     -0.38836346
N       0.72385839     -0.91155617     -0.97721686
C      -0.62021785     -0.93232815     -0.82696549
H      -3.06292391     -0.95147208      0.94060269
H      -3.24334614      0.75351066      0.46144828
H      -3.26788845     -0.50682299     -0.77140822
H      -1.07404406      1.44283806      1.52798677
H       1.39045756      1.51841182      1.28086249
H       3.22887220     -0.73592722     -1.14027783
H       3.23781918      0.98453473     -0.71387501
H       3.39917360     -0.25657995      0.55790104
H      -1.13202251     -1.66237344     -1.44850419
