24
CC(=O)CC(=O)Nc1ccccc1
C      -4.10147050      1.13875621      0.31304248
C      -2.83550748      0.60827422     -0.30730821
O      -2.17752632      1.28120250     -1.10475948
C      -2.41611096     -0.78835727      0.06608726
C      -0.97426881     -0.93609684      0.49768005
O      -0.69960673     -1.68942744      1.42913910
N      -0.07378111     -0.22772835     -0.27214125
C       1.33055613     -0.19933710     -0.15928589
C       2.02073602      0.66712832     -1.01753643
C       3.41436977      0.75827490     -0.97149087
C       4.13167216     -0.01727386     -0.06465467
C       3.45501537     -0.88421628      0.78992411
C       2.05975905     -0.97639782      0.74234618
H      -4.31390381      2.13755908     -0.07717551
H      -4.93756589      0.47685622      0.06393587
H      -3.97686691      1.20222186      1.39788529
H      -3.04866478     -1.13101180      0.89375451
H      -2.60248315     -1.44721360     -0.78852258
H      -0.47414340      0.41249944     -0.95838729
H       1.48313654      1.28527244     -1.73196878
H       3.93697119      1.43566461     -1.64112571
H       5.21564451      0.05249381     -0.02408186
H       4.00970570     -1.49249855      1.50030045
H       1.57433341     -1.66664467      1.42434322
