25
CCC(CC)(C(N)=O)C(N)=O
C      -2.53778901     -0.23830274      0.77099870
C      -1.39896624     -0.93086304      0.02518003
C      -0.03555043     -0.17514456      0.08634409
C       0.98718578     -0.97994318     -0.76970643
C       2.36819209     -0.34824067     -0.91878974
C       0.45969861     -0.18995769      1.54540553
N       1.33412912      0.78379013      1.93010702
O       0.18644046     -1.08721731      2.34135782
C      -0.21176754      1.23344668     -0.49992212
N      -0.65298727      1.32253559     -1.78941089
O       0.03667543      2.26869832      0.11533348
H      -2.30593422     -0.10287219      1.83121550
H      -3.44687070     -0.84516759      0.70482564
H      -2.76388684      0.74149296      0.34008253
H      -1.71333754     -1.06877904     -1.01689050
H      -1.28486088     -1.94204120      0.43755529
H       1.12006147     -1.97948021     -0.33439650
H       0.58462915     -1.13998993     -1.77813514
H       2.98003506     -0.95587094     -1.59413526
H       2.89549119     -0.29875546      0.03750865
H       2.31237726      0.65914192     -1.34080081
H       1.54781174      0.79930365      2.91920863
H       1.24152141      1.69802898      1.48711577
H      -0.78579018      2.24879563     -2.17601695
H      -0.91650792      0.52739188     -2.35403435
