67
CCC(C)CCCOC(=O)CCc1cc(-n2nc3ccccc3n2)c(O)c(C(C)(C)C)c1
C       8.53550742     -1.81195189      0.27452507
C       7.51814498     -0.87905646     -0.36967505
C       7.57060815      0.56509881      0.16736589
C       8.94632186      1.20371007     -0.05879375
C       6.49172042      1.45879568     -0.48258256
C       5.05923787      1.04088501     -0.14583666
C       4.04402887      2.05381031     -0.66978396
O       2.72124908      1.66982191     -0.26214863
C       2.05342811      0.83495447     -1.10732069
O       2.49310281      0.39367143     -2.15899347
C       0.70197582      0.50893484     -0.52569232
C      -0.23714553     -0.04590876     -1.59227716
C      -1.59395811     -0.37506066     -1.01615105
C      -2.54722193      0.62859341     -0.83767916
C      -3.79740494      0.32850688     -0.27804422
N      -4.73305214      1.38658990     -0.10574055
N      -5.96175052      1.16275218      0.43789498
C      -6.51866885      2.38292091      0.43620911
C      -7.79356600      2.77685702      0.88020618
C      -8.05907685      4.15308416      0.74297613
C      -7.12412363      5.07643025      0.20261818
C      -5.84451226      4.70206519     -0.25077297
C      -5.55919274      3.33122433     -0.12350995
N      -4.44735072      2.66356802     -0.45775711
C      -4.09195058     -0.99906927      0.10204656
O      -5.30482180     -1.33373495      0.65090207
C      -3.14749792     -2.04037248     -0.06506679
C      -3.44556978     -3.50526143      0.34298775
C      -3.71172474     -3.59931706      1.86177144
C      -4.66014290     -4.05298836     -0.43983153
C      -2.27636045     -4.48286311      0.05176349
C      -1.90042263     -1.68761875     -0.62544503
H       8.45303795     -1.78882255      1.36549173
H       8.36215945     -2.84103212     -0.05711690
H       9.55952387     -1.54587514     -0.00417903
H       7.66798934     -0.88217225     -1.45629148
H       6.52574748     -1.30361399     -0.18605163
H       7.38957064      0.54116907      1.24976779
H       9.21327073      1.20126257     -1.12144762
H       9.72978119      0.67484072      0.49263064
H       8.95581602      2.24287454      0.28822115
H       6.62338623      1.46710634     -1.57216682
H       6.63946655      2.49194580     -0.14121961
H       4.93832598      0.93824556      0.93962968
H       4.83186435      0.05739085     -0.57126029
H       4.23478667      3.03949024     -0.23154298
H       4.10818637      2.16952361     -1.75824622
H       0.27614577      1.42469242     -0.09767487
H       0.84481541     -0.21706179      0.28274142
H      -0.35679297      0.67631399     -2.41017495
H       0.19465533     -0.94292620     -2.05461164
H      -2.30331437      1.64734551     -1.13678401
H      -8.51025848      2.07883765      1.29067872
H      -9.02948858      4.53006745      1.06968948
H      -7.41292485      6.12624121      0.13292499
H      -5.13527157      5.40859337     -0.65891083
H      -5.86187993     -0.52886798      0.72502474
H      -4.61157743     -3.06192588      2.17243059
H      -2.87115328     -3.18889279      2.43383365
H      -3.84895733     -4.64156729      2.17295779
H      -4.81705006     -5.11773322     -0.23043289
H      -5.59513751     -3.54888867     -0.18387266
H      -4.51219077     -3.94548210     -1.52074345
H      -1.37209144     -4.21221398      0.61046806
H      -2.53458468     -5.50848153      0.34491814
H      -2.02725962     -4.51060344     -1.01606258
H      -1.12840679     -2.43885158     -0.77366918
