22
O=C(O)C(S)CCC(S)C(=O)O
O      -2.20782808      0.97198906      1.27236022
C      -2.44175066      0.97293936      0.07446629
O      -3.36225201      1.82989791     -0.42216331
C      -1.85455919      0.03924582     -0.97545014
S      -1.33161520      0.97510922     -2.45897215
C      -0.72580055     -0.84609023     -0.41890416
C       0.55642618     -0.10896056      0.01011873
C       1.65101441     -1.04843688      0.53747867
S       1.19255374     -1.83169472      2.12864387
C       2.94173845     -0.26552781      0.71278798
O       3.31013646      0.34875821      1.70152957
O       3.69441870     -0.25351590     -0.40813229
H      -3.65921246      2.33844768      0.36284647
H      -2.67426287     -0.62080150     -1.28422011
H      -2.45113648      1.71308837     -2.54913231
H      -0.46307048     -1.60042125     -1.17256786
H      -1.12868441     -1.40167336      0.43654404
H       0.96556735      0.43417658     -0.85020231
H       0.32812795      0.65637394      0.76193203
H       1.83320699     -1.86272579     -0.17255921
H       1.35132180     -0.72774466      2.87865586
H       4.47566035      0.28756649     -0.16505988
