41
COc1ccc2cc(C(C)C(=O)OCC(C)O)ccc2c1
C       6.77848416      1.92040304      1.09904464
O       5.95947171      1.50214441      0.01294604
C       4.75180350      0.94255182      0.33214809
C       4.25769817      0.73298076      1.61842638
C       2.99903379      0.14644501      1.80202023
C       2.21458301     -0.24014991      0.70326437
C       0.94881421     -0.83269585      0.87046375
C       0.17094857     -1.21744185     -0.23441772
C      -1.19403150     -1.84829533     -0.02184361
C      -1.30281175     -3.23243747     -0.66610493
C      -2.30813514     -0.94449216     -0.53050608
O      -2.69668637     -0.88528573     -1.69038965
O      -2.81184553     -0.19420652      0.48705756
C      -3.82062453      0.78453253      0.14890327
C      -5.16894033      0.12794726     -0.20614820
C      -6.33350882      1.05567960      0.11363216
O      -5.25146000     -0.16543776     -1.60569765
C       0.67626189     -0.98969768     -1.52179378
C       1.93190257     -0.40485360     -1.70186980
C       2.71215024     -0.02691605     -0.60005658
C       3.97720723      0.56138964     -0.76728051
H       7.06250440      1.06966301      1.73128685
H       7.69479519      2.34724983      0.67911173
H       6.28893875      2.70414814      1.68696932
H       4.82350921      1.01236305      2.50077182
H       2.63575295     -0.00610328      2.81675225
H       0.56734599     -0.99419027      1.87828909
H      -1.36138782     -1.99967747      1.05239492
H      -2.28756119     -3.67354121     -0.47061916
H      -0.53978850     -3.90998081     -0.26709013
H      -1.17857657     -3.19429061     -1.75340895
H      -3.93005475      1.40254367      1.04783340
H      -3.44532061      1.42509947     -0.65977969
H      -5.28961959     -0.81690786      0.33506005
H      -7.28502102      0.59059248     -0.16449298
H      -6.36508055      1.29822225      1.18005495
H      -6.25947472      1.98927114     -0.45553090
H      -4.38567061     -0.52939671     -1.89309175
H       0.09583402     -1.25855838     -2.40319140
H       2.29590863     -0.24377656     -2.71534880
H       4.37265174      0.72938313     -1.76776861
