30
Cc1ccccc1N(O)C(=O)c1cccc(F)c1
C      -3.03589508     -1.51549692      1.07544199
C      -2.47657790     -0.29469204      0.39336659
C      -3.25889406      0.87520831      0.39159711
C      -2.79560081      2.04712233     -0.20213459
C      -1.54940047      2.06358879     -0.81492172
C      -0.76663358      0.90690552     -0.83628717
C      -1.21141006     -0.28443022     -0.23671112
N      -0.41289923     -1.46114745     -0.28033915
O      -1.13519634     -2.60183899     -0.74431081
C       0.95102036     -1.56457399     -0.55107111
O       1.40798832     -2.51044724     -1.19854125
C       1.89492945     -0.57817274      0.03763707
C       1.66895397      0.00108850      1.29569067
C       2.58962096      0.90985587      1.82400010
C       3.74100186      1.22838309      1.10532516
C       3.96862919      0.63107737     -0.13027891
F       5.08084457      0.93455816     -0.81165180
C       3.06276973     -0.27368564     -0.66940976
H      -3.80931085     -1.24094230      1.80151620
H      -3.48684597     -2.18847455      0.34001696
H      -2.25919817     -2.04480597      1.63673160
H      -4.24033398      0.87751510      0.86230015
H      -3.41193760      2.94245434     -0.19289553
H      -1.19060537      2.97126281     -1.29377266
H       0.17608705      0.95205371     -1.37364580
H      -0.43904809     -3.08988028     -1.23422841
H       0.78607689     -0.25361536      1.87821824
H       2.41161169      1.36280545      2.79660044
H       4.46720512      1.93084187      1.50321122
H       3.27304838     -0.73251750     -1.63133932
