38
COc1ccc(C[C@H]2NC[C@H](O)[C@H]2OC(C)=O)cc1
C       6.22299169     -0.67382085      0.59391016
O       5.46407275      0.34301439     -0.04767508
C       4.10503342      0.28055645      0.09093373
C       3.40384433      1.29236408     -0.56764836
C       2.00940011      1.34931407     -0.51040947
C       1.29231867      0.38826710      0.21048591
C      -0.21772259      0.43793574      0.26966380
C      -0.90723811      0.08015590     -1.06998827
N      -0.60425068     -1.27695066     -1.55513667
C      -1.52640357     -2.18456744     -0.85955616
C      -2.74469276     -1.34786635     -0.44835466
O      -3.94120543     -1.88811156     -1.00437600
C      -2.44251297      0.06047288     -0.98545875
O      -2.93032240      1.10718461     -0.12730430
C      -4.28144630      1.24524303     -0.06552059
C      -4.64351834      2.40224646      0.81328545
O      -5.08955929      0.52083801     -0.62950844
C       1.99837950     -0.62450126      0.87242445
C       3.39576640     -0.67863083      0.81271504
H       5.97485057     -1.66306678      0.19524222
H       6.08962256     -0.63973065      1.68023706
H       7.28005042     -0.48564348      0.38257747
H       3.94996029      2.04416727     -1.13240419
H       1.49191167      2.14974617     -1.03397699
H      -0.50352716      1.45367664      0.57303836
H      -0.57328645     -0.21895156      1.07385550
H      -0.59613909      0.80938393     -1.82745465
H       0.36840144     -1.53085405     -1.38184814
H      -1.03667753     -2.58393041      0.03614672
H      -1.79010314     -3.02717707     -1.50601496
H      -2.85917066     -1.34109017      0.64166516
H      -4.62505174     -1.18499968     -0.96049522
H      -2.86887547      0.19568595     -1.98974896
H      -4.30759732      2.20993255      1.83519553
H      -5.73006544      2.52730782      0.81824787
H      -4.19149721      3.31852697      0.42519222
H       1.46694268     -1.38416389      1.44176455
H       3.89731715     -1.48196334      1.34163439
