22
COc1c(C(=O)O)oc2ccccc12
C      -1.70487798     -2.31743406      0.23045491
O      -1.59604058     -1.14493207      1.03278205
C      -0.81692775     -0.21427592      0.43927478
C      -1.29654463      0.94278693     -0.14321184
C      -2.63433451      1.43296052     -0.32436188
O      -3.68911796      0.88039057     -0.04392029
O      -2.65693750      2.66198900     -0.89185032
O      -0.23191247      1.67359189     -0.61509381
C       0.90380971      0.99008640     -0.30599936
C       2.19943478      1.40621157     -0.60402663
C       3.23727869      0.56669009     -0.18589891
C       2.97329822     -0.62320815      0.49765380
C       1.65752163     -1.01589693      0.78226162
C       0.59921198     -0.18955149      0.36183302
H      -2.09372815     -2.07986666     -0.76618264
H      -2.41198207     -2.99494747      0.71823495
H      -0.74239970     -2.83303628      0.14973463
H      -3.61161221      2.86509285     -0.94993381
H       2.38627786      2.33588043     -1.12772818
H       4.26756971      0.84951713     -0.39250184
H       3.80035973     -1.25386991      0.81762668
H       1.46165320     -1.93817845      1.32085305
