28
CNC(=O)/C=C(\C)OP(=O)(OC)OC
C       5.01053670      1.55873648     -0.06309041
N       3.60793514      1.62031572      0.26117674
C       2.71664498      0.73674037     -0.29883263
O       3.00317002     -0.08623806     -1.15581791
C       1.34730764      0.89809896      0.24606999
C       0.44573973     -0.08732089      0.37763486
C       0.67960027     -1.54229064      0.08796769
O      -0.81695927      0.26699861      0.84735256
P      -2.09821472     -0.68959049      1.07571172
O      -1.92743595     -1.77239018      2.09610065
O      -3.29023860      0.34497121      1.41634985
C      -3.49988317      1.44042391      0.54978194
O      -2.47550576     -1.21093561     -0.40412848
C      -3.47966742     -2.20226859     -0.48116978
H       5.47239401      2.51060419      0.20888693
H       5.46641955      0.74862323      0.51219546
H       5.14778715      1.36896298     -1.13103883
H       3.32701527      2.16330675      1.06638025
H       1.06873117      1.91150806      0.51378735
H       0.34760685     -2.16053515      0.92665616
H       0.13210193     -1.84468699     -0.80941741
H       1.73307068     -1.78959683     -0.05999682
H      -3.66023859      1.09840623     -0.47575718
H      -2.64606455      2.12179900      0.58681940
H      -4.39097712      1.98021490      0.88043778
H      -3.11935933     -3.13407116     -0.03730267
H      -3.71653232     -2.38042281     -1.53302252
H      -4.38498428     -1.86936321      0.03378246
