20
C1=Cc2cccc3cccc1c23
C       0.67229875      2.32783894     -0.30616771
C      -0.67396321      2.32797317     -0.30146771
C      -1.11804868      0.95223453     -0.12035460
C      -2.36557364      0.36347289     -0.03913155
C      -2.43713325     -1.03031484      0.14302085
C      -1.26914094     -1.81835429      0.24177448
C       0.00043581     -1.21318647      0.15833095
C       1.27044310     -1.81860937      0.23288971
C       2.43787356     -1.03080595      0.12598466
C       2.36531639      0.36299669     -0.05566840
C       1.11737300      0.95201113     -0.12817153
C      -0.00005801      0.16873188     -0.02202792
H       1.32767983      3.17527573     -0.41907942
H      -1.32995163      3.17554394     -0.40977391
H      -3.27056774      0.95682644     -0.11341130
H      -3.41095299     -1.51097786      0.20917179
H      -1.35552086     -2.89244518      0.38225445
H       1.35757232     -2.89271513      0.37277631
H       3.41203360     -1.51166917      0.18531351
H       3.26988460      0.95617294     -0.13626263
