25
CC(N)Cc1ccccc1.Cl
C      -3.07056526     -0.52765850      0.13775061
C      -1.63093467     -0.30793941     -0.28015019
N      -1.45462180      0.95880502     -0.94971202
C      -0.72551774     -0.34074144      0.93240179
C       0.66527784     -0.11644892      0.42517778
C       1.44657063     -1.19056329      0.05486546
C       2.72643004     -1.00002642     -0.41301413
C       3.28766981      0.25407998     -0.53491490
C       2.49045332      1.31759237     -0.15936848
C       1.20559287      1.14554948      0.31171545
Cl      0.69016678      0.00000000      0.00000000
H      -3.14986660     -0.38544521      1.21512178
H      -3.39746100     -1.54517718     -0.11581766
H      -3.68486108      0.16949993     -0.46632447
H      -1.32804910     -1.09647299     -1.01581974
H      -2.06911324      0.96494114     -1.80545023
H      -1.69390791      1.77212431     -0.33113556
H      -0.97014532      0.54494210      1.54759545
H      -0.79940838     -1.29761197      1.47575063
H       1.03307104     -2.20992311      0.13787070
H       3.31081031     -1.86179147     -0.69413306
H       4.30315044      0.40583249     -0.90612154
H       2.89293055      2.32131661     -0.23937601
H       0.61249525      2.02511647      0.59742002
H      -0.69016678      0.00000000      0.00000000
