70
CC12CCC(=O)C=C1CCC1C2CCC2(C)C(OC(=O)CCCc3ccccc3)CCC12
C      -4.78871057     -0.04230915      2.37940248
C      -4.40859315      0.24111173      0.89997852
C      -4.86722404      1.69033648      0.55979673
C      -6.37880161      1.84597466      0.45786594
C      -6.92327541      0.87544561     -0.55774381
O      -7.92060280      1.11931441     -1.23256769
C      -6.27482977     -0.45280202     -0.66892224
C      -5.16606995     -0.76075175      0.02798694
C      -4.65880224     -2.18131943      0.02960918
C      -3.16264238     -2.24727098     -0.22994791
C      -2.37339480     -1.39631150      0.77953439
C      -2.83368322      0.09298149      0.75014568
C      -2.21462373      0.81756454     -0.46600718
C      -0.68608302      0.70962325     -0.49540530
C      -0.17419019     -0.74223233     -0.51253776
C      -0.34617856     -1.33025475     -1.92232241
C       1.31895182     -0.85550153     -0.10377808
O       2.11984075      0.21149892     -0.62417014
C       2.92759546     -0.08614236     -1.67950924
O       2.99556049     -1.17286634     -2.23401470
C       3.70381426      1.14442942     -2.08185068
C       4.96252521      0.82238582     -2.89082250
C       5.99783725     -0.04493074     -2.15902613
C       6.47214842      0.54594260     -0.85499741
C       7.31692985      1.66419843     -0.84482942
C       7.73720097      2.22111558      0.36363656
C       7.31611976      1.66777472      1.57167422
C       6.47808435      0.55379019      1.57230980
C       6.05914443     -0.00642057      0.36554771
C       1.32596484     -0.79118297      1.42364365
C      -0.07472967     -1.19922870      1.87172398
C      -0.85012888     -1.58158157      0.59390913
H      -4.35691602      0.71427903      3.04455707
H      -4.43093662     -1.01715229      2.72653253
H      -5.87271521     -0.03560905      2.53357492
H      -4.47465003      1.99771539     -0.41338915
H      -4.47388900      2.39590789      1.29860570
H      -6.61300372      2.86232583      0.12292312
H      -6.88004485      1.67973750      1.41536671
H      -6.80198257     -1.17237905     -1.28559503
H      -4.88336931     -2.63903772      1.00181295
H      -5.17589593     -2.78994123     -0.72344242
H      -2.84039882     -3.29449304     -0.16406296
H      -2.97895293     -1.92622174     -1.25694570
H      -2.61190051     -1.80084835      1.77295308
H      -2.39996482      0.58743110      1.63110434
H      -2.43278129      1.88915497     -0.41702766
H      -2.64779734      0.44834309     -1.40039789
H      -0.29384376      1.24380538      0.37985075
H      -0.30726987      1.25535450     -1.36885445
H      -1.36019969     -1.22086387     -2.30722916
H       0.30751612     -0.82199907     -2.64093681
H      -0.09219671     -2.39559626     -1.94418458
H       1.71935984     -1.83744873     -0.38841169
H       3.03600509      1.77375513     -2.68296334
H       3.97264867      1.70913707     -1.18171050
H       5.42827168      1.76928578     -3.19208917
H       4.67791484      0.30958389     -3.81866605
H       5.60046554     -1.05347028     -1.99132562
H       6.86942940     -0.18289277     -2.81305536
H       7.65349228      2.10616898     -1.78035311
H       8.39381880      3.08698390      0.36267701
H       7.64408310      2.10333922      2.51188767
H       6.15310191      0.11965744      2.51433284
H       5.40605174     -0.87664091      0.38273175
H       1.58257054      0.20812388      1.79707655
H       2.07842440     -1.48001507      1.82796230
H      -0.03979949     -2.04037600      2.57485904
H      -0.53926219     -0.36147129      2.40384819
H      -0.64453716     -2.64601445      0.40881725
