32
O=CNC(N1C=CN(C(NC=O)C(Cl)(Cl)Cl)C=C1)C(Cl)(Cl)Cl
O      -5.24441889      1.35660479     -0.64536228
C      -4.39384265      1.98286813     -0.03389405
N      -3.25807534      1.44754069      0.49700803
C      -2.90357965      0.04634674      0.32347671
N      -1.41358467      0.04246117      0.22863817
C      -0.55620641      0.42574866      1.27273491
C       0.78409193      0.38255477      1.14864663
N       1.41358908     -0.04241915     -0.03370665
C       2.90358392     -0.04634891     -0.12853206
N       3.25803744     -1.44755641     -0.30204774
C       4.39378902     -1.98291960      0.22884818
O       5.24438653     -1.35667739      0.84031156
C       3.50464163      0.97825997     -1.18129214
Cl      2.71839847      2.60217414     -1.05097137
Cl      5.27072991      1.25609708     -0.91897474
Cl      3.33004472      0.41356697     -2.88887161
C       0.55621040     -0.42569351     -1.07780823
C      -0.78408716     -0.38250012     -0.95372055
C      -3.50459322     -0.97828018      1.37624094
Cl     -5.27067311     -1.25618046      1.11392993
Cl     -3.33000871     -0.41357154      3.08381684
Cl     -2.71829243     -2.60216807      1.24593098
H      -4.46185506      3.07023670      0.13708351
H      -2.52671504      2.06721280      0.81333050
H      -3.30132452     -0.25662989     -0.65515896
H      -1.01714151      0.77248206      2.18987680
H       1.43892797      0.68080064      1.96196187
H       3.30132666      0.25662483      0.85010712
H       2.52666278     -2.06720632     -0.61837728
H       4.46176161     -3.07029168      0.05789398
H       1.01714240     -0.77240765     -1.99496335
H      -1.43892610     -0.68072925     -1.76704291
