31
COc1ccc(S(=O)(=O)c2csc(S(N)(=O)=O)c2)cc1
C      -5.10513745      0.76086247     -1.57292440
O      -4.45789596     -0.42401933     -1.12570256
C      -3.38023018     -0.26829893     -0.29878490
C      -2.78538372     -1.46611682      0.11240094
C      -1.67468845     -1.45873103      0.95772423
C      -1.15145520     -0.23743227      1.38573845
S       0.25149522     -0.22332067      2.46308332
O       0.17514691     -1.36662087      3.34898213
O       0.47531233      1.12482063      2.94345046
C       1.60824431     -0.53423971      1.42782461
C       2.31367133     -1.71815549      1.41030098
S       3.57902177     -1.68685848      0.25788629
C       3.19576287     -0.08865820     -0.22046111
S       4.21151940      0.61509596     -1.48975672
N       5.81531420      0.51716799     -1.00605086
O       4.07296974     -0.23434445     -2.64817021
O       3.88421473      2.02155383     -1.51343706
C       2.11990035      0.41129514      0.48875681
C      -1.74418919      0.96602293      0.99542276
C      -2.85720883      0.94740526      0.14820856
H      -5.52219783      1.32406438     -0.73156484
H      -4.42601171      1.38120397     -2.16706575
H      -5.93645842      0.46391963     -2.21955602
H      -3.19810451     -2.41376976     -0.22779356
H      -1.23571345     -2.40170925      1.27571432
H       2.15150432     -2.59971433      2.01839269
H       6.32177947     -0.09924240     -1.64352994
H       6.21519130      1.45609836     -0.97304031
H       1.73165654      1.41295121      0.33714035
H      -1.35354893      1.92074405      1.34251875
H      -3.29448096      1.89802618     -0.14063321
