14
Clc1nc2ccccc2s1
Cl      4.27189146      0.20166230      1.13791734
C       2.61036418      0.03531351      0.73946270
N       1.95442667      0.95875244      0.08569233
C       0.64650717      0.53391546     -0.08045742
C      -0.37729657      1.24776435     -0.73573522
C      -1.65942679      0.69659909     -0.83099457
C      -1.93276693     -0.55294060     -0.28309580
C      -0.93647728     -1.28312611      0.37239697
C       0.34763117     -0.72108578      0.46277147
S       1.77007708     -1.36387323      1.19801463
H      -0.16132132      2.22258711     -1.16238061
H      -2.44600437      1.25140914     -1.33763385
H      -2.93515538     -0.96891913     -0.36505766
H      -1.15244911     -2.25805857      0.79909969
