48
C[C@H](Oc1ccc(S(C)(=O)=O)cc1C(=O)N1Cc2ccc(C(F)(F)F)nc2C1)C(F)(F)F
C      -1.43304016     -3.44129226      0.37071323
C      -2.28138499     -2.23864713      0.77675550
O      -1.38090910     -1.27994689      1.38488748
C      -1.68392538      0.00880290      1.03895296
C      -2.31346176      0.80521605      1.99644822
C      -2.62928855      2.13381055      1.70245061
C      -2.30822445      2.65945350      0.44660869
S      -2.69631059      4.35391278      0.07380412
C      -4.28344815      4.24808736     -0.71234409
O      -1.72763765      4.80652552     -0.90640216
O      -2.85916357      5.04853634      1.33637882
C      -1.63404157      1.88766433     -0.50248217
C      -1.30875932      0.56528435     -0.19010975
C      -0.58876061     -0.22379961     -1.20165144
O      -1.23353028     -0.68004743     -2.14053453
N       0.76568215     -0.38707300     -1.04536336
C       1.54870725     -1.11858585     -2.03627062
C       2.94678738     -1.02052003     -1.52646982
C       4.11828893     -1.52334395     -2.05270732
C       5.29992826     -1.27620508     -1.35220303
C       5.26764826     -0.53469581     -0.15541953
C       6.57951712     -0.30406515      0.58772458
F       6.49862776      0.59233547      1.61080599
F       7.56811163      0.16113006     -0.23315643
F       7.07459211     -1.45260755      1.13524072
N       4.10258655     -0.04060736      0.36468107
C       2.98667233     -0.29851910     -0.33990191
C       1.59904591      0.14679308      0.03967369
C      -3.37899260     -2.66829293      1.75412028
F      -4.17138167     -1.62561623      2.10099723
F      -2.87082459     -3.19133923      2.89314607
F      -4.18363205     -3.60526401      1.19895001
H      -2.04325585     -4.22099079     -0.09627884
H      -0.91689478     -3.86819134      1.23682292
H      -0.65485284     -3.14114170     -0.33938144
H      -2.75827106     -1.83188284     -0.12543092
H      -2.56224888      0.39375854      2.97286288
H      -3.11856080      2.74715786      2.45714008
H      -4.59322155      5.25795215     -0.98836166
H      -4.19918983      3.62849007     -1.60746358
H      -5.00041069      3.81950591     -0.00875087
H      -1.35251335      2.30363292     -1.46832595
H       1.43319533     -0.63687119     -3.01203412
H       1.19734601     -2.15417335     -2.07619720
H       4.12651056     -2.09202148     -2.97728515
H       6.24535343     -1.65719229     -1.73258562
H       1.28997344     -0.29215581      0.99209141
H       1.51756226      1.23703966      0.06337544
