35
CC(C=O)Cc1ccc(C(C)(C)C)cc1
C       5.07261419     -0.68037298     -0.11296854
C       3.61107353     -0.37430942      0.20759639
C       3.49804395      0.85542874      1.08996747
O       4.41930078      1.63384527      1.31796709
C       2.80875569     -0.16327373     -1.08331999
C       1.31739279     -0.10602882     -0.85333962
C       0.59835556     -1.26462103     -0.54791665
C      -0.78120124     -1.21057357     -0.31506722
C      -1.48666146      0.00121771     -0.38062665
C      -3.00204755      0.09689763     -0.13088845
C      -3.70207521      0.64902017     -1.39143453
C      -3.27364274      1.04475955      1.05737039
C      -3.66678577     -1.25739076      0.20467352
C      -0.74760018      1.15777430     -0.69389613
C       0.63039508      1.10739004     -0.92760838
H       5.15790570     -1.60352136     -0.69565681
H       5.53452657      0.12943852     -0.68868584
H       5.65518705     -0.80720004      0.80610155
H       3.20687009     -1.21431357      0.78554818
H       2.50367262      1.02692731      1.53818069
H       3.00907919     -0.98028158     -1.78909885
H       3.13879803      0.75541192     -1.58646350
H       1.10366282     -2.22668594     -0.49099624
H      -1.28343655     -2.14600118     -0.08393954
H      -4.78854748      0.69481887     -1.25217670
H      -3.50390754      0.01370366     -2.26286254
H      -3.36847283      1.66228457     -1.64070288
H      -2.93188629      2.06657098      0.85934000
H      -4.34566526      1.10326702      1.27933468
H      -2.76376936      0.69710918      1.96371882
H      -3.54952658     -1.97815283     -0.61295593
H      -4.74338196     -1.13742683      0.37572185
H      -3.24381711     -1.70015213      1.11398158
H      -1.24035817      2.12556916     -0.76321294
H       1.15714963      2.02887117     -1.16798970
