24
CCCC1CCCC1
C       3.45064343     -0.49582577     -0.33720541
C       2.03285582     -0.29538714     -0.84979668
C       1.00492455     -0.46605990      0.27008358
C      -0.43482600     -0.33640148     -0.23016710
C      -1.46126407     -0.53187867      0.88376204
C      -2.74940786      0.01209419      0.28130706
C      -2.32008799      1.11409349     -0.68646597
C      -0.79577307      1.04979878     -0.76284571
H       3.58025144     -1.50121714      0.07597043
H       4.16981054     -0.36858627     -1.15240040
H       3.69129268      0.23128558      0.44492954
H       1.95371421      0.70577926     -1.28765738
H       1.83498158     -1.01776339     -1.65012754
H       1.19734469      0.27397538      1.05718318
H       1.13262666     -1.45416913      0.72999696
H      -0.61588263     -1.08241276     -1.01609088
H      -1.55927465     -1.58024120      1.18188584
H      -1.19026959      0.05019547      1.77320446
H      -3.43406677      0.38280758      1.05031801
H      -3.27000820     -0.77982157     -0.27011571
H      -2.76736400      0.94441117     -1.67226495
H      -2.64995350      2.10038103     -0.34343324
H      -0.36329362      1.83452732     -0.12998628
H      -0.43697365      1.21041515     -1.78429701
