58
C=C(C)C(=O)OCCCCCCCCCCCCOC(=O)C(=C)C
C       9.07634807     -0.03849277      0.97280886
C       7.83375700     -0.46215394      0.68557082
C       7.16758504     -1.57812719      1.42828679
C       7.09979960      0.22277999     -0.41745656
O       7.53996153      1.16467968     -1.05905972
O       5.88326092     -0.35295309     -0.58734021
C       5.05628229      0.22189872     -1.60866140
C       4.27720195      1.42562675     -1.08010975
C       3.48502738      1.15932011      0.20472994
C       2.40553866      0.08657296      0.04127401
C       1.57118742     -0.05397639      1.31682742
C       0.55253013     -1.19634348      1.25687170
C      -0.48564441     -1.10778083      0.13416896
C      -1.34463033      0.15674424      0.19665112
C      -2.43796530      0.13732471     -0.87514755
C      -3.29659779      1.40217994     -0.81298032
C      -4.33527635      1.48812515     -1.93726883
C      -5.37761143      0.37230326     -1.92566974
O      -6.04475520      0.36606961     -0.65867611
C      -6.96526902     -0.61989145     -0.51555356
O      -7.25088671     -1.45233241     -1.36404989
C      -7.60892534     -0.57504423      0.83055337
C      -7.27845799      0.33583018      1.76227465
C      -8.65296941     -1.62401033      1.06981918
H       9.54292600      0.77580922      0.42350012
H       9.66206345     -0.49327288      1.76486068
H       6.92592532     -2.40333618      0.75037912
H       6.24410774     -1.22936012      1.90237260
H       7.80986102     -1.98072151      2.21906724
H       4.36813675     -0.56121974     -1.94319838
H       5.65319212      0.49927297     -2.48601077
H       4.98140190      2.23946895     -0.86895248
H       3.60133436      1.78765201     -1.86369879
H       3.01262394      2.10008241      0.51417820
H       4.16989511      0.87502429      1.01266613
H       2.86832272     -0.87880965     -0.19174010
H       1.75994375      0.35447751     -0.80237477
H       1.06242727      0.89190566      1.53535350
H       2.24225079     -0.24373234      2.16420509
H       0.02918409     -1.24339904      2.22007478
H       1.09192986     -2.14629834      1.15424037
H       0.00907419     -1.17384746     -0.84163711
H      -1.13749686     -1.98760308      0.20698364
H      -0.71764258      1.04360189      0.05168042
H      -1.80473630      0.24050943      1.18858022
H      -1.97808189      0.05295191     -1.86710886
H      -3.06547569     -0.74906928     -0.72946832
H      -2.64550029      2.28246989     -0.88425440
H      -3.79523094      1.46251715      0.16187803
H      -3.82848614      1.49938075     -2.90917633
H      -4.85369755      2.44952200     -1.83291621
H      -4.90427650     -0.59906265     -2.10688565
H      -6.11186605      0.55970698     -2.71809695
H      -6.52176602      1.09549022      1.59064831
H      -7.76185481      0.34626682      2.73420829
H      -9.46642250     -1.52905742      0.34291431
H      -9.09262354     -1.54302230      2.06974802
H      -8.21893343     -2.62535143      0.98011692
