15
O=[N+]([O-])c1ccc(O)cc1
O      -3.06541265      1.12901658      0.71905930
N      -2.59576627      0.12822328      0.15849143
O      -3.27381053     -0.79246779     -0.31927431
C      -1.13456455      0.02768160      0.05384913
C      -0.55788257     -1.08601471     -0.57182168
C       0.83213519     -1.17369356     -0.66704359
C       1.62816758     -0.15906908     -0.14220228
O       2.97902477     -0.29296985     -0.26124328
C       1.06203983      0.95063858      0.48094111
C      -0.32841681      1.04792781      0.58140683
H      -1.16889133     -1.88520926     -0.98577633
H       1.29501162     -2.03116243     -1.14941337
H       3.41197264      0.47719774      0.14300153
H       1.68176408      1.74288636      0.89081451
H      -0.76537100      1.91701473      1.06921100
