49
CCOC(=O)/C=C(C)/C=C/CC(C)CCCC(C)C
C      -7.83715132     -0.49190450     -1.65033005
C      -7.80259104     -0.16792946     -0.16850545
O      -6.52009347      0.36527512      0.19231698
C      -5.56956105     -0.55397238      0.50547148
O      -5.71151249     -1.76334248      0.51084139
C      -4.33664199      0.19090892      0.85507954
C      -3.08281445     -0.30417555      0.90666077
C      -2.70641213     -1.71782090      0.53751444
C      -2.00548331      0.59536555      1.32755388
C      -0.71788977      0.26476477      1.52115469
C       0.33614878      1.24485299      1.96559258
C       1.44390860      1.52810833      0.92519591
C       0.86498625      2.17299806     -0.33859018
C       2.26653843      0.26170656      0.60771966
C       3.53043315      0.54994764     -0.21170109
C       4.36941694     -0.71960735     -0.39516531
C       5.58577270     -0.52315415     -1.31896941
C       6.59326933      0.47905330     -0.75384178
C       6.27578296     -1.86796596     -1.56085924
H      -7.58343783      0.39294151     -2.24329361
H      -8.82924321     -0.84341485     -1.94738598
H      -7.10324531     -1.26433351     -1.90102854
H      -8.05608680     -1.04376754      0.43987809
H      -8.54484902      0.60497786      0.05638341
H      -4.52258689      1.23205166      1.10459858
H      -2.42508038     -2.28441263      1.43152954
H      -1.86190975     -1.72325896     -0.16143334
H      -3.50125823     -2.26687461      0.03050772
H      -2.29009717      1.63333334      1.50349786
H      -0.37901788     -0.75828857      1.38307033
H      -0.12942698      2.19752784      2.25026095
H       0.79587160      0.85302729      2.88192314
H       2.12083443      2.26086413      1.38538878
H       0.21627101      3.01748171     -0.08192561
H       1.65999793      2.56236546     -0.98202095
H       0.27831225      1.45827119     -0.92494771
H       2.56210217     -0.21448625      1.55137613
H       1.64879626     -0.46435428      0.06520732
H       4.11991462      1.31849272      0.29980039
H       3.25759327      0.94348250     -1.19684099
H       3.72917486     -1.50523446     -0.81697485
H       4.70347906     -1.08024756      0.58612839
H       5.23448518     -0.14727407     -2.28827810
H       7.47745661      0.54521464     -1.39716493
H       6.92580628      0.18598520      0.24767835
H       6.16421029      1.48355257     -0.69123731
H       5.58079631     -2.58786580     -2.00596764
H       6.65393189     -2.29479689     -0.62560982
H       7.12109932     -1.75406815     -2.24784247
