21
Cc1ccc2cccc(O)c2n1
C       3.05124866      1.36539199      0.07872714
C       1.82661616      0.50252566      0.00966641
C       1.95244081     -0.87130324     -0.15725684
C       0.79865647     -1.64702790     -0.21789537
C      -0.45615634     -1.03689613     -0.11086032
C      -1.65666643     -1.77139020     -0.16530912
C      -2.88885531     -1.12415071     -0.05448068
C      -2.93092125      0.25623151      0.11092249
C      -1.73714040      0.96941635      0.16302255
O      -1.80375626      2.33295897      0.32709945
C      -0.48976162      0.36013206      0.05629166
N       0.62573089      1.12041619      0.11614390
H       3.62891913      1.27675196     -0.84657247
H       2.77935003      2.41754173      0.21140250
H       3.67755528      1.06595274      0.92478599
H       2.92997791     -1.33551550     -0.23932022
H       0.88398363     -2.72265039     -0.34822397
H      -1.63619447     -2.85126740     -0.29436208
H      -3.81260296     -1.69546142     -0.09710858
H      -3.87966555      0.77689240      0.19891181
H      -0.86275840      2.61145131      0.33441576
