35
CN(C)CCOCCN(C)CCO
C       5.34140511      0.37010729     -0.71336520
N       3.91619227      0.14343431     -0.96676194
C       3.17142598      1.38566838     -0.74617706
C       3.42253620     -0.95202378     -0.10116685
C       1.96166345     -1.36504460     -0.35776413
O       1.07200556     -0.52151864      0.38044221
C      -0.29733248     -0.84004114      0.11020106
C      -1.19308010      0.07230063      0.96276650
N      -2.63854303     -0.23220546      0.87464309
C      -3.34434466      0.49442377      1.93826639
C      -3.17795339      0.12625769     -0.45978782
C      -4.67291867     -0.18584420     -0.66132321
O      -5.48952277      0.87436343     -0.17052123
H       5.91882857     -0.53868460     -0.91677496
H       5.73351024      1.14363169     -1.38325447
H       5.53457242      0.67837511      0.32063846
H       3.59851970      2.20043845     -1.34258382
H       2.13365350      1.28811551     -1.07939943
H       3.17939201      1.69337790      0.30560178
H       3.55302251     -0.69181094      0.95728531
H       4.03953197     -1.83616711     -0.30590401
H       1.72921361     -1.32505002     -1.42870409
H       1.82055628     -2.39610780     -0.01246511
H      -0.48245679     -1.89048027      0.36347455
H      -0.48634098     -0.68806023     -0.95724732
H      -0.99263737      1.12311792      0.71291681
H      -0.85918313     -0.04890656      2.00259748
H      -4.38856450      0.17531726      2.00973910
H      -2.90485521      0.26948072      2.91721874
H      -3.31112284      1.57981944      1.79073715
H      -2.64467525     -0.46561430     -1.21116937
H      -2.99326233      1.18702884     -0.67246927
H      -4.88136716     -0.28774495     -1.73161873
H      -4.95562465     -1.12143641     -0.16699177
H      -6.41224408      0.58148269     -0.26107886
