40
Cc1ccc(N/N=C2\C(=O)C(C(=O)[O-])=Cc3ccccc32)c(S(=O)(=O)[O-])c1.[Sr+2]
C      -5.22834938      1.42983192     -1.35001263
C      -4.00913051      0.92428627     -0.63090040
C      -2.86172351      1.68577511     -0.54062656
C      -1.77681308      1.14867599      0.14067423
C      -1.81398005     -0.09722396      0.71668375
N      -0.68267039     -0.59163892      1.39605886
N       0.52157624      0.10169487      1.54126674
C       1.47478423     -0.13138151      0.70295310
C       1.30604056     -1.10002749     -0.37990046
O       0.18742427     -1.67738415     -0.43347476
C       2.38207484     -1.35681956     -1.31854955
C       2.18744170     -2.31870339     -2.37802528
O       1.10670141     -2.92195841     -2.48506485
O       3.18177140     -2.61413781     -3.31634459
C       3.52233132     -0.68821054     -1.16631029
C       3.74581162      0.28769509     -0.10643438
C       4.97082412      0.94836985     -0.01312293
C       5.14522499      1.85740939      0.99378471
C       4.14614980      2.14291153      1.92269782
C       2.93730168      1.49162737      1.83144108
C       2.75990771      0.57539909      0.81751129
C      -2.95110438     -0.84715216      0.62496962
S      -3.10927495     -2.44082384      1.31829758
O      -2.93071577     -2.42490239      2.80648097
O      -2.11231606     -3.39908458      0.73707274
O      -4.63810794     -3.06144622      1.01124931
C      -4.03915866     -0.32561472     -0.05019016
Sr      0.00000000      0.00000000      0.00000000
H      -5.03964322      2.39371204     -1.82273114
H      -6.07153154      1.57657652     -0.62292410
H      -5.55034787      0.71601517     -2.13188331
H      -2.83166219      2.66622881     -0.99360952
H      -0.89872910      1.75881435      0.19676963
H      -0.73272838     -1.53743183      1.82457509
H       4.32315448     -0.89667347     -1.88603866
H       5.71229582      0.70023588     -0.74671251
H       6.10789617      2.37844621      1.06937595
H       4.36815398      2.87488161      2.68604721
H       2.14673483      1.69359236      2.53728465
H      -4.95561416     -0.92156449     -0.12811420
