22
CC(=O)N=c1sc(S(N)(=O)=O)nn1C
C      -3.75705383      0.88697946     -1.09275546
C      -2.85659913      1.13195531      0.08783714
O      -2.81128585      2.21759076      0.65540283
N      -2.16972542      0.02282697      0.50212229
C      -0.88555363      0.00297060      0.35213424
S       0.09080702      1.23981911     -0.43332336
C       1.51649594      0.29875860     -0.00357826
S       3.16252848      0.84895766     -0.38144955
N       4.26712673     -0.33076450      0.12561785
O       3.28470330      0.89001634     -1.82274921
O       3.43432760      2.00314789      0.44732688
N       1.31328652     -0.83344414      0.61311947
N      -0.04213452     -1.01047629      0.76060588
C      -0.48287518     -2.09969950      1.61013579
H      -4.60081303      0.26381362     -0.78583869
H      -4.13235503      1.84134127     -1.47240616
H      -3.19904818      0.39124607     -1.89179374
H       4.82576720     -0.63522227     -0.67331795
H       4.83949046      0.04656337      0.88290227
H       0.25106658     -2.91270425      1.61659981
H      -1.43116149     -2.51521294      1.25403627
H      -0.61699453     -1.74846315      2.63810382
