9
N#CNC(N)=S
N      -1.76442655      1.85113435     -0.56449440
C      -1.41846865      0.79314204     -0.24816743
N      -1.00042994     -0.41318962      0.11314617
C       0.37599270     -0.65052659      0.21911082
N       1.26231698      0.34070186     -0.04463501
S       0.92809959     -2.15374108      0.67018904
H      -1.63216370     -1.18749735      0.32080830
H       2.25195860      0.14368334      0.03920526
H       0.99712097      1.27629305     -0.32326970
