23
Clc1ccc(Oc2c(Cl)cc(Cl)cc2Cl)c(Cl)c1
Cl     -5.09409505      1.30497331      0.90384298
C      -3.59547204      0.53625339      0.55371379
C      -2.44042991      0.94052143      1.22165716
C      -1.21938627      0.32065836      0.94273019
C      -1.15413869     -0.69804554     -0.01641938
O       0.01405707     -1.36739980     -0.32476132
C       1.18882049     -0.65099180     -0.29464322
C       2.11704278     -0.91602451      0.72144225
Cl      1.78236743     -2.06627826      1.96526432
C       3.33656037     -0.23871187      0.75996181
C       3.63608137      0.69202064     -0.23157052
Cl      5.13780026      1.52963054     -0.18620692
C       2.73608413      0.94641211     -1.26405992
C       1.51611009      0.26742008     -1.30199124
Cl      0.46068841      0.58495576     -2.63140738
C      -2.32829731     -1.10846292     -0.66633717
Cl     -2.30788961     -2.37946927     -1.83671488
C      -3.54754906     -0.48825357     -0.38756504
H      -2.48503848      1.73265196      1.96551546
H      -0.33930680      0.63754705      1.49438726
H       4.05033620     -0.43902865      1.55536757
H       2.98799160      1.66314245     -2.04227836
H      -4.45233699     -0.80352088     -0.89992743
