22
O=C(O)C1=CCC(C(=O)O)CC1
O       3.79882053      0.07662283     -0.41354184
C       2.95349973     -0.37785148      0.33703900
O       3.30212584     -1.08616998      1.42350627
C       1.48875987     -0.22521128      0.16858042
C       0.60845410     -0.77704859      1.02472003
C      -0.88121795     -0.65639623      0.86817463
C      -1.30752097     -0.15718953     -0.52051978
C      -2.76662529      0.23629664     -0.51449929
O      -3.53777620      0.19672451      0.42901835
O      -3.20304651      0.62600276     -1.72868706
C      -0.42041244      1.01122540     -0.95838565
C       1.05328219      0.59729424     -1.01515709
H       4.28062395     -1.09330611      1.38922081
H       0.95225274     -1.34608164      1.88624089
H      -1.33901885     -1.63662132      1.05062773
H      -1.25047495      0.01184261      1.65645089
H      -1.20342545     -0.98612151     -1.23412712
H      -4.15233700      0.82761485     -1.58840909
H      -0.54165000      1.84933033     -0.25862192
H      -0.72366387      1.38884246     -1.94221281
H       1.22836339      0.01328745     -1.92755391
H       1.66098715      1.50691359     -1.09256650
