57
Cc1cc(Cc2cc(C)cc(C(C)(C)C)c2O)c(O)c(C(C)(C)C)c1
C       3.69329541     -3.64398228     -0.15390324
C       3.05674194     -2.32494950      0.17276600
C       1.89223871     -2.27271617      0.93835188
C       1.30658034     -1.04458798      1.27821758
C       0.05171283     -1.05392161      2.12759847
C      -1.23324847     -1.06672611      1.32301171
C      -1.76002611     -2.29265154      0.90108028
C      -2.94021288     -2.34090283      0.16258577
C      -3.49061946     -3.65679495     -0.30476556
C      -3.57021097     -1.14045708     -0.20075926
C      -3.06940159      0.12707299      0.17042361
C      -3.78287460      1.41167818     -0.31858424
C      -4.77109505      1.15784569     -1.49094475
C      -4.61504072      2.01170131      0.83369520
C      -2.78340265      2.46367132     -0.85688695
C      -1.90626465      0.11990602      0.97157122
O      -1.35040285      1.27134311      1.46521641
C       1.91700721      0.14143706      0.82336939
O       1.35305321      1.35144293      1.12966682
C       3.11289313      0.13515206      0.06977095
C       3.79570995      1.43756266     -0.41109502
C       5.09683630      1.19614359     -1.22086683
C       4.20037072      2.31418783      0.79534312
C       2.85239802      2.22958201     -1.34452794
C       3.66065244     -1.12739953     -0.23642076
H       4.19513028     -3.60456571     -1.12651081
H       2.94197579     -4.43885677     -0.20961941
H       4.42749169     -3.90533664      0.61431238
H       1.43724415     -3.20020872      1.27966965
H       0.06599180     -0.21578039      2.83563089
H       0.06587222     -1.93541744      2.78461531
H      -1.24704599     -3.21769740      1.15545491
H      -3.10094409     -3.89259479     -1.29981389
H      -3.21531702     -4.46362893      0.38263437
H      -4.58446690     -3.62795115     -0.34880237
H      -4.47162001     -1.22802128     -0.80180894
H      -5.19868319      2.09809165     -1.86053739
H      -4.27222566      0.67134358     -2.33728454
H      -5.62095367      0.53663080     -1.18611608
H      -4.00411521      2.31216056      1.68900808
H      -5.16119785      2.90264264      0.50195454
H      -5.35267552      1.28933384      1.20362798
H      -2.17131761      2.92095857     -0.07622551
H      -3.30829169      3.29517310     -1.34329088
H      -2.10733491      2.02072946     -1.59774049
H      -2.07837133      1.87149399      1.69391831
H       0.38571675      1.23514195      1.21815075
H       4.90576046      0.61354581     -2.12973404
H       5.54650663      2.14447024     -1.53981565
H       5.85235350      0.67020777     -0.62541882
H       4.75955064      3.19935174      0.46928046
H       4.83845679      1.75534632      1.49028740
H       3.34134267      2.68257884      1.36289200
H       1.95598184      2.59513340     -0.83594960
H       2.52243720      1.61011587     -2.18697021
H       3.35633500      3.11143074     -1.75783550
H       4.57972302     -1.20945885     -0.81009905
