13
CN(C)C
C       0.06503846      1.37699200      0.15937757
N      -0.20403748      0.07731148     -0.45476409
C      -1.15374729     -0.68410807      0.35581145
C       1.03888721     -0.67400629     -0.62623245
H      -0.85951523      1.95796097      0.25070491
H       0.51173531      1.28077268      1.15573829
H       0.74429043      1.96534962     -0.46761280
H      -1.38821644     -1.64095412     -0.12391227
H      -2.10054040     -0.14074836      0.45072275
H      -0.77056064     -0.88772856      1.36240854
H       1.53633000     -0.87710053      0.32919128
H       1.73590926     -0.12307293     -1.26755734
H       0.84442680     -1.63066790     -1.12387583
