36
CCCCN1CC(O)C(O)C(O)C1CO
C       3.70857520      1.02580518     -0.55203467
C       3.20227218     -0.40471485     -0.45186059
C       2.29270333     -0.64982242      0.75729195
C       0.97066193      0.13436552      0.75179714
N       0.15460476     -0.13944473     -0.44462531
C      -0.37861351      1.10367027     -1.02834263
C      -1.49696302      1.75402199     -0.20095041
O      -2.01141828      2.92178695     -0.85504028
C      -2.64313631      0.75956630     -0.02889586
O      -3.65896735      1.32117100      0.82118889
C      -2.15171531     -0.55944146      0.57555400
O      -3.25637353     -1.47972667      0.56025318
C      -0.95565251     -1.12353245     -0.23542918
C      -0.51925830     -2.50609418      0.30965867
O      -0.21568200     -2.47934037      1.70264947
H       4.42714990      1.11259447     -1.37341380
H       2.89482761      1.72876944     -0.74960446
H       4.21215103      1.32976078      0.37104173
H       4.06921595     -1.07153396     -0.36893379
H       2.68820928     -0.67830054     -1.38000633
H       2.84179298     -0.39084542      1.67158723
H       2.09758006     -1.72441452      0.82092086
H       0.41897640     -0.05263454      1.67928337
H       1.23392017      1.19880996      0.80467093
H      -0.75489553      0.88966108     -2.03838813
H       0.42799732      1.82813061     -1.19932142
H      -1.13052144      2.08106404      0.77918412
H      -1.26962843      3.54456656     -0.95823561
H      -3.13829284      0.57433346     -0.99082902
H      -3.82054312      2.21434011      0.45604315
H      -1.88307768     -0.41162423      1.62806077
H      -3.99196679     -0.98888445      0.97908331
H      -1.33169001     -1.35054539     -1.24456536
H      -1.32552081     -3.23328174      0.16027002
H       0.35529963     -2.87632309     -0.23606280
H      -0.06202095     -3.40191271      1.96904666
