36
Cc1ccccc1NC(=O)c1cc2ccccc2cc1O
C      -2.73851970      1.92388058     -1.31993993
C      -3.44614943      0.93106873     -0.43664012
C      -4.84157361      1.04504567     -0.29690613
C      -5.55493854      0.15712513      0.50437649
C      -4.88202825     -0.85394677      1.17793113
C      -3.49630161     -0.98070386      1.04979463
C      -2.76261582     -0.10215127      0.24363674
N      -1.35675349     -0.19945579      0.10242182
C      -0.52602016     -1.19648746      0.57958679
O      -0.86410761     -2.24479628      1.12196852
C       0.93167332     -0.99452938      0.33797167
C       1.49295933      0.29103819      0.29648378
C       2.86487296      0.46940534      0.04453686
C       3.43783783      1.75065106     -0.00819836
C       4.80055745      1.91319391     -0.26341259
C       5.60843159      0.79860403     -0.46706499
C       5.05666142     -0.48196548     -0.41330450
C       3.68845750     -0.66311757     -0.15739978
C       3.12510787     -1.94547041     -0.08675151
C       1.76556919     -2.10736101      0.17209742
O       1.31323710     -3.39851160      0.25081516
H      -3.43672456      2.64248628     -1.76247879
H      -2.23474500      1.40803844     -2.14376949
H      -2.00648182      2.49467570     -0.73947898
H      -5.38516350      1.83174163     -0.81623113
H      -6.63267174      0.25518756      0.60369490
H      -5.43039793     -1.54923818      1.80842033
H      -3.01698829     -1.77984837      1.60604455
H      -0.92979944      0.49550902     -0.49234858
H       0.87641888      1.16568067      0.48789126
H       2.82737213      2.63709108      0.14971186
H       5.23148654      2.91051866     -0.30169193
H       6.67005775      0.92382210     -0.66465581
H       5.70543188     -1.34143397     -0.56996426
H       3.74246631     -2.83061609     -0.22278751
H       0.40338143     -3.37513027      0.62564045
