24
CCCC(C)(O)CC
C       3.30184735     -0.15457259      0.55843520
C       1.97191010      0.57549613      0.43622474
C       0.84261223     -0.38716409      0.04933929
C      -0.56861516      0.24850284      0.00721032
C      -0.64710146      1.38065317     -1.02107288
O      -0.85640123      0.81607199      1.28763136
C      -1.60606695     -0.86007644     -0.28986943
C      -3.06057499     -0.40309525     -0.26429570
H       4.09646568      0.54852553      0.82718730
H       3.57577354     -0.63151311     -0.38804858
H       3.25620800     -0.92698177      1.33278292
H       1.74630115      1.06337497      1.39081735
H       2.07791903      1.36177798     -0.31817206
H       1.07138620     -0.83902091     -0.92440015
H       0.83709069     -1.20289587      0.78498228
H      -0.43090311      1.02071861     -2.03191218
H       0.05111054      2.18920729     -0.78087416
H      -1.63548951      1.85208667     -1.02237137
H      -0.80779601      0.10403393      1.94817988
H      -1.50655309     -1.65210889      0.46388817
H      -1.39492585     -1.31812900     -1.26395565
H      -3.72312628     -1.26591083     -0.39000768
H      -3.31399955      0.07687214      0.68568966
H      -3.27707131      0.29544737     -1.07738862
