73
COc1ccc(CCN(C)CCCC(C#N)(c2ccc(OC)c(OC)c2)C(C)C)cc1OC.Cl
C       8.94805835      0.42714883     -0.61182156
O       7.69439695      0.94239278     -0.50657985
C       6.50050733      0.47500561     -0.06260991
C       6.37598829     -0.80368802      0.46303398
C       5.15792743     -1.28624313      0.91676003
C       4.02615782     -0.50774002      0.85965565
C       2.69594639     -0.90403815      1.34262443
C       1.81757202     -1.64993233      0.45234718
N       1.39642798     -1.13907367     -0.78667307
C       2.47002279     -1.06353117     -1.77507364
C       0.62887053      0.07573318     -0.77383110
C      -0.70991910     -0.09115497     -0.08225714
C      -1.55570565     -1.15111065     -0.67339443
C      -2.81953275     -1.31013924      0.10071080
C      -2.38161260     -1.65029793      1.51001122
N      -2.03740168     -1.88566662      2.58804184
C      -3.74774232     -0.21640522      0.22996076
C      -5.00042187     -0.28922162     -0.40593575
C      -5.89943635      0.73195331     -0.24056086
C      -5.58237016      1.81754120      0.54020823
O      -6.52308634      2.82819031      0.68330032
C      -7.77663642      2.78673337      0.06244250
C      -4.36170848      1.92253578      1.17947750
O      -4.15294639      3.04521314      1.92396274
C      -3.00604919      3.40585735      2.63784192
C      -3.43184300      0.88883700      1.02105696
C      -3.44070475     -2.62498674     -0.36685819
C      -2.40846489     -3.70764291     -0.00171250
C      -3.58445547     -2.71818036     -1.86027610
C       4.18764881      0.78050873      0.32049090
C       5.36452033      1.26834161     -0.12527579
O       5.54615776      2.53580840     -0.66329287
C       4.50678114      3.45485939     -0.80785043
Cl      0.68686530      0.00000000      0.00000000
H       9.16661892     -0.38144135      0.10977743
H       9.76651674      1.19159077     -0.52768048
H       9.09834892      0.00647180     -1.65049125
H       7.28490721     -1.38249555      0.49506115
H       5.12130252     -2.29524142      1.31760342
H       2.24089567      0.01299365      1.79634946
H       2.88978753     -1.55406620      2.25552848
H       0.88339883     -1.93593045      1.03953952
H       2.27167091     -2.66329718      0.24844565
H       3.37370179     -1.45297029     -1.31162857
H       2.54407466     -0.03015540     -2.10580550
H       2.16551880     -1.75353966     -2.62039892
H       1.08786163      0.94935375     -0.32805979
H       0.39992980      0.32002797     -1.84554004
H      -0.52854974     -0.13824635      0.99395429
H      -1.23650902      0.89451362     -0.30740566
H      -1.04491792     -2.13678124     -0.76159053
H      -1.86017669     -0.83716865     -1.71726407
H      -5.19457177     -1.16112411     -0.99197023
H      -6.86422234      0.64407806     -0.75035007
H      -7.59297197      2.71362011     -1.03740124
H      -8.38601638      3.69529651      0.30389141
H      -8.31519291      1.87732782      0.46168718
H      -2.67120811      2.67425783      3.39844167
H      -3.11451077      4.43028828      3.09689406
H      -2.15798278      3.50200076      1.90599701
H      -2.51680203      1.01498126      1.55754936
H      -4.33953394     -2.83610407      0.20717953
H      -1.80768826     -4.01190773     -0.88108841
H      -2.91798526     -4.60930638      0.39715788
H      -1.69382382     -3.37008850      0.76335461
H      -3.45815794     -1.79115712     -2.41582042
H      -2.84618265     -3.44048796     -2.32972491
H      -4.58416714     -3.21129872     -2.06225540
H       3.30847548      1.40258606      0.27415127
H       3.61332821      3.26202048     -0.19735697
H       4.80654043      4.50660118     -0.54774156
H       4.21134687      3.50719120     -1.89402614
H      -0.68686530      0.00000000      0.00000000
