25
CCCCOCC(C)O
C      -3.64735926      0.06831716      0.81018215
C      -3.00253193      0.74353097     -0.39025081
C      -1.65579182      0.13613051     -0.77886221
C      -0.57293884      0.32128229      0.27853792
O       0.64960801     -0.20221383     -0.24296951
C       1.72655311     -0.05823968      0.69306792
C       3.00181561     -0.64266262      0.07418858
C       3.42713602      0.09150900     -1.19032323
O       2.77222738     -2.01443293     -0.25899924
H      -4.64598111      0.48260295      0.98239392
H      -3.75126325     -1.00892389      0.64642460
H      -3.06239690      0.22568509      1.72105659
H      -2.88402381      1.81405247     -0.18638866
H      -3.68292432      0.65741443     -1.24582294
H      -1.77207552     -0.93234994     -0.99985393
H      -1.31637095      0.59370585     -1.71695928
H      -0.44518035      1.38505031      0.50875726
H      -0.83036533     -0.21790954      1.19614567
H       1.47229722     -0.61613967      1.60160530
H       1.86831435      0.99961257      0.94040898
H       3.81445207     -0.60897898      0.80715084
H       2.67083790      0.00556716     -1.97801413
H       4.34545216     -0.34985776     -1.59276599
H       3.60922032      1.15174093     -0.99077030
H       1.91128924     -2.02449284     -0.72273529
