59
N#C[C@H](O[C@@H]1O[C@H](CO[C@@H]2O[C@H](CO)[C@@H](O)[C@H](O)[C@H]2O)[C@@H](O)[C@H](O)[C@H]1O)c1ccccc1
N       3.07686079      4.39701934     -1.04644986
C       3.28754173      3.27070793     -0.83359061
C       3.53226890      1.82241071     -0.63613771
O       3.03266163      1.40562378      0.64333756
C       2.46634730      0.09467502      0.61021968
O       1.22606575      0.16058429     -0.09602116
C       0.50589843     -1.07573768     -0.11869669
C      -0.77203587     -0.90431391     -0.95714618
O      -1.71945058     -0.11846194     -0.23271899
C      -3.06237213     -0.29444526     -0.68501026
O      -3.66808143      0.99538950     -0.77101830
C      -5.04062699      0.93245819     -1.20381138
C      -5.54461834      2.37272836     -1.33956185
O      -4.70271208      3.08566521     -2.25008068
C      -5.88486160      0.13208388     -0.20627296
O      -7.23479906      0.00149953     -0.65654030
C      -5.27963537     -1.26268272     -0.03059136
O      -6.01106921     -1.96443462      0.98831216
C      -3.80067486     -1.17478476      0.34489413
O      -3.27397239     -2.51186558      0.40228091
C       0.16987256     -1.52797509      1.31130336
O      -0.55708358     -2.76729447      1.32682983
C       1.46038712     -1.66955194      2.11692461
O       1.16213426     -1.98833129      3.48504859
C       2.27328490     -0.37562789      2.06738349
O       3.54007372     -0.62092725      2.70284884
C       5.01257466      1.48931994     -0.75046946
C       5.86079903      1.53837658      0.36914307
C       7.22098455      1.24625035      0.24560886
C       7.75195666      0.90864841     -0.99672297
C       6.92589670      0.86531543     -2.11909193
C       5.56470297      1.15506979     -1.99759453
H       2.99160400      1.29247009     -1.43271248
H       3.15389915     -0.58608866      0.09194256
H       1.12895806     -1.82613518     -0.62386001
H      -1.18714975     -1.89314230     -1.18275494
H      -0.54930556     -0.38927836     -1.89781996
H      -3.07123669     -0.75474459     -1.68201207
H      -5.06599596      0.47007705     -2.19962384
H      -5.50510546      2.89964612     -0.37945712
H      -6.56730820      2.40898402     -1.72369081
H      -3.78915427      2.92243034     -1.94004270
H      -5.91387798      0.63945588      0.76676477
H      -7.63945322     -0.66659434     -0.06737975
H      -5.40995653     -1.85329860     -0.94718496
H      -5.49325210     -2.77704650      1.16021997
H      -3.70030932     -0.75453475      1.35417435
H      -2.40474976     -2.45372173      0.85451915
H      -0.46693244     -0.79100509      1.81560073
H       0.00807800     -3.46396109      0.93821843
H       2.05605173     -2.51221829      1.74226403
H       0.38896658     -2.58718955      3.47559141
H       1.77585848      0.41104905      2.65035730
H       3.31377174     -0.87631484      3.61845167
H       5.46463960      1.80531187      1.34855493
H       7.86500177      1.29052734      1.12152662
H       8.81238706      0.68373871     -1.09120249
H       7.34371456      0.61379227     -3.08944204
H       4.94253836      1.13039928     -2.88995230
