17
CCN(O)CC
C      -2.48658785     -0.07248492      0.00703921
C      -1.12083832     -0.74923824      0.01681783
N      -0.03202227      0.23948519     -0.02596787
O      -0.10322140      0.84479489     -1.35012185
C       1.27454732     -0.43465060      0.03182724
C       2.41926485      0.57180249      0.03777545
H      -2.66024223      0.47628376     -0.92419944
H      -3.27719924     -0.82376380      0.10355992
H      -2.58507219      0.62816466      0.84302597
H      -1.05416289     -1.45072950     -0.82430729
H      -1.04233988     -1.33504057      0.94063254
H      -0.22813234      1.78488664     -1.11941966
H       1.33858963     -1.02234930      0.95555287
H       1.40162211     -1.12821246     -0.80891628
H       3.37579602      0.04997483      0.14522902
H       2.32320758      1.27276270      0.87378344
H       2.45679112      1.14831426     -0.89213445
