52
OC(CCN1CCCCC1)(c1ccccc1)C1C[C@@H]2C=C[C@H]1C2
O      -1.06584653     -0.61224902     -1.62088797
C      -1.11475371      0.01114764     -0.33173912
C       0.26816066     -0.22171168      0.34058470
C       1.45955149      0.35343442     -0.44785674
N       2.75369415      0.13927501      0.23992730
C       3.77659194      1.02349620     -0.34786540
C       5.12083921      0.88114661      0.36661519
C       5.60193747     -0.56350226      0.35525891
C       4.51434710     -1.48544404      0.89020493
C       3.18590140     -1.26690741      0.16191987
C      -1.38735659      1.51887578     -0.47862995
C      -1.72112069      2.30602682      0.63891957
C      -1.96266884      3.67669302      0.51321504
C      -1.86276242      4.29279847     -0.73000535
C      -1.51094993      3.54108169     -1.84631835
C      -1.26988847      2.17021856     -1.72141934
C      -2.22875458     -0.69560084      0.51202161
C      -3.69896128     -0.45057174      0.00867205
C      -4.30853063     -1.86812169     -0.02614402
C      -4.32222785     -2.42830175      1.37600165
C      -3.04827160     -2.68332046      1.71212285
C      -2.18175473     -2.25764013      0.54028064
C      -3.13481076     -2.66830454     -0.58810509
H      -1.87079949     -0.34897665     -2.09813940
H       0.42216246     -1.29946075      0.44556112
H       0.27002625      0.20157248      1.35364946
H       1.49103447     -0.05954890     -1.46386042
H       1.30420192      1.43376628     -0.54673703
H       3.45979013      2.06976681     -0.25683777
H       3.90325894      0.81325332     -1.41822031
H       5.02448628      1.22742686      1.40352246
H       5.86649309      1.52276388     -0.11636135
H       6.51112789     -0.66312150      0.95813642
H       5.86007283     -0.85655077     -0.66974358
H       4.82872341     -2.52948414      0.77957996
H       4.37744660     -1.30526628      1.96413181
H       2.44915676     -1.92441926      0.63416275
H       3.28429446     -1.58606769     -0.88399567
H      -1.78922949      1.86506893      1.63084361
H      -2.22193591      4.26357296      1.39081007
H      -2.04641690      5.35947830     -0.82619874
H      -1.41335770      4.02245178     -2.81606991
H      -0.96527006      1.62274492     -2.61093947
H      -2.15586005     -0.32502928      1.54472881
H      -4.24299022      0.21506887      0.68817117
H      -3.72228815     -0.00950074     -0.99325260
H      -5.24599484     -1.97255603     -0.57311957
H      -5.19493473     -2.56247916      1.99670484
H      -2.68999963     -3.05661168      2.65951997
H      -1.20526828     -2.73948292      0.51565092
H      -2.82682636     -2.34128574     -1.58431127
H      -3.32346847     -3.74961258     -0.62415927
