20
O=C(O)CCCCC(=O)O
O      -2.03875326      1.48023696      1.15586560
C      -2.51942978      0.76621818      0.29342639
O      -3.64234707      1.13492266     -0.35387312
C      -2.01944964     -0.57580674     -0.17159317
C      -0.63187521     -0.91550831      0.37279623
C       0.47746012     -0.09871189     -0.29663170
C       1.85119395     -0.48180724      0.24776187
C       2.94544855      0.35748471     -0.34922103
O       3.75859599      1.02500100      0.26756768
O       3.00121869      0.28009840     -1.69186093
H      -3.87008078      2.00289300      0.04088587
H      -2.73460268     -1.32802893      0.17982274
H      -2.00605833     -0.59154894     -1.26690133
H      -0.44169673     -1.98132766      0.19589453
H      -0.60340671     -0.76163164      1.45834974
H       0.44694125     -0.26349283     -1.38069386
H       0.31069863      0.97350024     -0.13976125
H       1.87494222     -0.33777924      1.33429079
H       2.07863248     -1.53541961      0.05192373
H       3.76256831      0.85070786     -1.92814438
