38
Cc1nc(-c2ccc(OCC(C)C)c(C#N)c2)sc1C(=O)O
C      -5.95397810     -1.60803874     -0.63774975
C      -4.95489707     -0.56971252     -0.26541123
N      -3.61285338     -0.88711575     -0.42826511
C      -2.83636268      0.11409032     -0.06382151
C      -1.36014384      0.06541049     -0.12656084
C      -0.52790619      1.12691647      0.25752824
C       0.86910919      1.02457880      0.17660823
C       1.47125384     -0.14526406     -0.29079303
O       2.82180540     -0.33447136     -0.40621306
C       3.68960241      0.70984793      0.03717516
C       5.14492886      0.25557299     -0.14998653
C       5.45649796     -0.98093960      0.69634039
C       6.10659800      1.39086936      0.19465681
C       0.65477484     -1.21603986     -0.68085582
C       1.22139258     -2.44171567     -1.16945644
N       1.64555143     -3.44677124     -1.56801124
C      -0.74269187     -1.10571434     -0.59675222
S      -3.69253706      1.49465858      0.49644836
C      -5.19196263      0.70076935      0.23364199
C      -6.41281985      1.39932185      0.54051488
O      -6.55114068      2.53110329      0.98300224
O      -7.51072973      0.65394848      0.28446971
H      -6.61095546     -1.24441649     -1.43374898
H      -6.56149745     -1.88799934      0.22827428
H      -5.45709347     -2.51286382     -1.00290979
H      -0.94179752      2.06208554      0.62904302
H       1.45454664      1.88479025      0.48717236
H       3.50456668      0.93068015      1.09593429
H       3.51364437      1.61027234     -0.56405415
H       5.29067740     -0.02178089     -1.20188355
H       5.30473536     -0.78020457      1.76236171
H       6.49657702     -1.29421998      0.55604273
H       4.81724600     -1.82437049      0.41582387
H       5.91696289      2.26595791     -0.43580588
H       7.14533803      1.08320116      0.03448992
H       6.00146867      1.69748368      1.24094132
H      -1.36180183     -1.95028842     -0.90416586
H      -8.24610877      1.25036819      0.53730742
