12
O=S(=O)([O-])OOS(=O)(=O)[O-].[Na+].[Na+]
O       1.86399807     -0.75295571     -1.21113008
S       1.85042808     -0.76758426      0.25137501
O       2.15391652     -2.08067609      0.82749337
O       2.61800385      0.31957195      0.86434104
O       0.29878402     -0.48630263      0.69068548
O      -0.22447329      0.75875049      0.11854487
S      -1.85640469      0.74567139     -0.00928738
O      -2.18902045     -0.43868421     -0.80048119
O      -2.34162740      0.69371800      1.37225762
O      -2.17360471      2.00849107     -0.68226468
Na      0.00000000      0.00000000      0.00000000
Na      0.00000000      0.00000000      0.00000000
