54
C[C@]12CC(=O)[C@H]3[C@@H](CCC4=CC(=O)CC[C@@]43C)[C@@H]1CC[C@]2(O)C(=O)CO
C       1.91160271     -1.19986321     -1.15088797
C       1.83370674     -0.30861940      0.11646364
C       1.16078960     -1.10519644      1.24229307
C      -0.29675099     -1.36438621      0.87920145
O      -0.74271901     -2.50924088      0.91667127
C      -1.15175102     -0.12752130      0.53565426
C      -0.43074291      0.72586473     -0.55111859
C      -1.18802035      2.04067921     -0.78483349
C      -2.63978398      1.78898533     -1.16975243
C      -3.34458639      0.91588027     -0.15639599
C      -4.51466814      1.32268141      0.36623932
C      -5.29696826      0.46316167      1.28326385
O      -6.29397352      0.91679078      1.83617333
C      -4.85812587     -0.96745032      1.44128141
C      -3.33834945     -1.04355612      1.45769969
C      -2.65923054     -0.41750303      0.20099367
C      -2.82992159     -1.36795248     -1.00561601
C       1.01305915      0.98865430     -0.09723431
C       1.91433105      1.84030841     -0.98905098
C       3.35109769      1.48414744     -0.54974288
C       3.22175428      0.31140816      0.44916102
O       3.17759726      0.89831020      1.76469911
C       4.37861866     -0.69905967      0.48657853
O       4.56172260     -1.38928571      1.50001871
C       5.30577360     -0.83585866     -0.71011167
O       6.16296727     -1.96081379     -0.57960207
H       2.52481645     -2.08785328     -0.96543349
H       0.92970008     -1.56649944     -1.46639026
H       2.34349418     -0.67705066     -2.00878679
H       1.16614429     -0.57462818      2.20019042
H       1.66547815     -2.06645527      1.39197273
H      -1.14560780      0.46667782      1.46422071
H      -0.41114765      0.17878237     -1.50056475
H      -0.70796071      2.61594217     -1.58371793
H      -1.15125807      2.66185835      0.11816663
H      -2.68261341      1.30544756     -2.15283547
H      -3.14633867      2.75466690     -1.28195627
H      -4.97421261      2.27448194      0.12091495
H      -5.24876721     -1.34831214      2.39219579
H      -5.29032447     -1.56253555      0.63129970
H      -2.98448377     -0.52329135      2.35906022
H      -3.05312125     -2.09475840      1.57696298
H      -2.50341325     -2.38661841     -0.77920903
H      -2.26277872     -1.03507942     -1.88115841
H      -3.87955348     -1.43483592     -1.31446084
H       0.94162203      1.52248077      0.86457451
H       1.77012909      1.60343195     -2.04940897
H       1.71804683      2.90999785     -0.85958412
H       3.82703534      2.35639337     -0.08219275
H       3.93265944      1.23557088     -1.44207123
H       3.41938083      0.19856560      2.39946436
H       5.92557458      0.06204025     -0.78482829
H       4.72835701     -0.96635962     -1.62820933
H       6.14171417     -2.22262482      0.36443297
