41
COC(=O)c1cc(C)ccc1C1=NC(C)(C(C)C)C(=O)N1
C      -2.64556559      3.26439533      1.51620993
O      -2.37212367      1.87089120      1.67331992
C      -2.32129934      1.18600243      0.50681614
O      -2.49074077      1.63134401     -0.61605973
C      -1.99918449     -0.22360747      0.78585771
C      -2.83259230     -0.90134804      1.69733519
C      -2.59159763     -2.23787179      2.03497569
C      -3.50254388     -2.96157832      2.98228152
C      -1.51919364     -2.90110067      1.43586207
C      -0.68955693     -2.23201571      0.53097455
C      -0.92117309     -0.88891314      0.18474179
C       0.05147305     -0.28952924     -0.76069249
N       1.27798282     -0.70774824     -0.86124742
C       1.90703185      0.14208589     -1.92234145
C       2.25111021     -0.75840452     -3.11062363
C       3.12105962      0.91788525     -1.35333349
C       4.28737462     -0.00109180     -0.96938627
C       2.76138082      1.79398613     -0.14334775
C       0.78056854      1.08149919     -2.33560721
O       0.82094428      1.97976047     -3.15837626
N      -0.29341136      0.71249902     -1.59466944
H      -3.62714436      3.41167891      1.05499148
H      -2.65661385      3.72173102      2.50933884
H      -1.86152257      3.74361337      0.92150685
H      -3.67504556     -0.37837617      2.14885243
H      -4.33024250     -3.41735471      2.43028736
H      -2.96201809     -3.74639835      3.52170566
H      -3.91101514     -2.27532267      3.73153992
H      -1.31379845     -3.94401163      1.67121800
H       0.14799025     -2.77391807      0.09168628
H       1.34591097     -1.17756924     -3.56651821
H       2.77785704     -0.19729039     -3.89022001
H       2.87504071     -1.60629847     -2.80964373
H       3.48586988      1.59590581     -2.13725724
H       4.67932567     -0.53429158     -1.84069278
H       5.11686385      0.58004327     -0.55146726
H       3.98621856     -0.74046848     -0.22005544
H       3.63434337      2.36751014      0.18759160
H       2.42072233      1.19161521      0.70522610
H       1.97638326      2.51590155     -0.38883636
H      -1.18906848      1.18616046     -1.66306644
