54
C[C@H]1CC(=O)C[C@@H]2CC[C@H]3[C@@H]4CC[C@H](O)[C@@]4(C)CC[C@@H]3[C@@]12C
C      -2.76487956      1.87269132     -1.28495155
C      -2.56337566      1.58708327      0.21441611
C      -3.94436277      1.46274704      0.88444541
C      -4.59775502      0.13467911      0.57988967
O      -5.78725946      0.06165752      0.27246114
C      -3.76225809     -1.10567439      0.78947805
C      -2.39112969     -0.95955397      0.12124651
C      -1.55277426     -2.22580109      0.34342882
C      -0.23201014     -2.15939609     -0.41622295
C       0.57818745     -0.90726042     -0.05973128
C       1.84309575     -0.79632645     -0.91889297
C       2.83584610     -1.95570245     -0.93864985
C       4.13739130     -1.32226182     -1.46349787
C       3.88632120      0.19761233     -1.51633494
O       5.04223937      0.93331725     -1.16548659
C       2.71490564      0.41665374     -0.53953137
C       3.22711748      0.41301024      0.92370273
C       1.89720787      1.69003208     -0.79210864
C       0.56956466      1.67213352     -0.01222340
C      -0.27264315      0.39088014     -0.26039589
C      -1.63534607      0.34939870      0.53666592
C      -1.34544245      0.36194366      2.06642981
H      -1.82333295      2.11587631     -1.78402751
H      -3.22462296      1.03192554     -1.81170672
H      -3.41995010      2.74079102     -1.42233091
H      -2.09504452      2.48707028      0.63512746
H      -3.86806217      1.55808431      1.97246451
H      -4.60849058      2.26663889      0.54578058
H      -4.29735312     -1.95534106      0.34870264
H      -3.68222758     -1.29408452      1.86462810
H      -2.57661121     -0.90431216     -0.96095657
H      -2.11126657     -3.10450340     -0.00246847
H      -1.36176339     -2.38340089      1.41120600
H      -0.43637482     -2.17677875     -1.49448858
H       0.34961173     -3.06117477     -0.19193640
H       0.87423653     -0.99973268      0.98990869
H       1.50655633     -0.66957825     -1.96184110
H       2.98979238     -2.37005866      0.06388612
H       2.50112538     -2.77180476     -1.58703344
H       4.37699311     -1.69751105     -2.46475603
H       4.98379744     -1.57878429     -0.81653947
H       3.59822890      0.48638916     -2.53509937
H       5.75153344      0.67256593     -1.77750506
H       3.86235879     -0.45115898      1.14230986
H       3.82497737      1.30968521      1.12469379
H       2.41630106      0.40267686      1.65669261
H       1.67087960      1.78651200     -1.86196334
H       2.47424638      2.58118529     -0.51749252
H       0.00068346      2.56094545     -0.30452433
H       0.78369031      1.78664386      1.05462563
H      -0.53045943      0.40398459     -1.32938917
H      -2.24590080      0.20781754      2.66677307
H      -0.64056590     -0.41525984      2.37061842
H      -0.92562656      1.32282861      2.38200048
