21
COC(=O)c1ccccc1C
C       3.55456114      0.24595877     -0.36812354
O       2.18693691      0.64881277     -0.28625215
C       1.32156410     -0.37783952     -0.07730067
O       1.62954925     -1.55258064      0.03523368
C      -0.07570001      0.14458300     -0.03290963
C      -0.30744473      1.44249911      0.45747798
C      -1.60344678      1.95272271      0.53632771
C      -2.68069722      1.17119589      0.13252265
C      -2.46491453     -0.11922230     -0.35291763
C      -1.16577818     -0.64863288     -0.44884852
C      -0.99394551     -2.04558002     -0.97991535
H       3.70359660     -0.43640105     -1.21084428
H       3.87425786     -0.21899845      0.56974870
H       4.16144749      1.14007044     -0.53541776
H       0.52014502      2.06417467      0.79208705
H      -1.77097669      2.95677944      0.91784031
H      -3.69250546      1.56420036      0.19696450
H      -3.32364112     -0.71376515     -0.65995226
H      -1.92446487     -2.42232995     -1.41872107
H      -0.70887427     -2.72708781     -0.17260353
H      -0.23966900     -2.06855939     -1.77292693
