53
CCCCCCCCCCCCCC(=O)OC(C)C
C      -7.59252429      0.67086934     -1.19807617
C      -6.12504957      0.60831123     -0.80260938
C      -5.91985705      1.04348548      0.64899268
C      -4.44650254      1.11418161      1.06027073
C      -3.75331621     -0.25139696      1.08316720
C      -2.31657270     -0.12941002      1.59783721
C      -1.61036932     -1.47945326      1.75794323
C      -1.45825453     -2.30843288      0.47767365
C      -0.75019705     -1.61196587     -0.68869805
C       0.67629199     -1.16574033     -0.35786961
C       1.36844626     -0.57779329     -1.59050182
C       2.82551192     -0.18335695     -1.33701956
C       2.97712896      0.94767787     -0.32326652
C       4.38595394      1.48463736     -0.30631918
O       4.68533457      2.62672569     -0.62579046
O       5.25494239      0.53146710      0.12859377
C       6.64079809      0.91763227      0.18759491
C       7.31817520      0.01090152      1.20906587
C       7.27619665      0.74956381     -1.18891633
H      -7.98017378      1.69066736     -1.10770523
H      -7.71919877      0.35120875     -2.23723497
H      -8.19803540      0.01453400     -0.56396970
H      -5.76821951     -0.41715781     -0.94656483
H      -5.54491253      1.25375306     -1.47212570
H      -6.36190118      2.03789964      0.79078406
H      -6.45662889      0.36186844      1.31997427
H      -4.39436713      1.55709419      2.06285007
H      -3.90842136      1.79248481      0.38711474
H      -3.74618068     -0.67769054      0.07444633
H      -4.31671382     -0.93869923      1.72638900
H      -2.32787274      0.36318738      2.57867558
H      -1.73851798      0.52346474      0.93345573
H      -0.62065506     -1.30545115      2.19696926
H      -2.16067530     -2.08173238      2.49249398
H      -2.44791874     -2.63668454      0.13817198
H      -0.90829537     -3.22547423      0.72721363
H      -1.33962210     -0.75189450     -1.02742581
H      -0.71925533     -2.31410841     -1.53180622
H       1.25306429     -2.02085388      0.01488838
H       0.64983011     -0.41573072      0.43929532
H       0.80910606      0.29569705     -1.94788536
H       1.34975727     -1.31768648     -2.40059982
H       3.39119805     -1.06210858     -1.00333196
H       3.27202393      0.12319532     -2.29150937
H       2.30808871      1.77777347     -0.58027240
H       2.71944388      0.62612952      0.69174819
H       6.73515958      1.95613273      0.52903113
H       8.38035648      0.25260993      1.31219278
H       7.22375041     -1.04371309      0.92515090
H       6.83858777      0.11698907      2.18940056
H       7.14969024     -0.27476604     -1.55694244
H       6.79667258      1.40630040     -1.92238109
H       8.34469963      0.98485799     -1.16391522
