19
COC(=O)c1ccc([O-])cc1.[Na+]
C       3.44345214      0.18376058     -0.04006620
O       2.08524458     -0.25038868     -0.03289932
C       1.18585221      0.75350354      0.14805910
O       1.47231773      1.93313665      0.29501679
C      -0.20352659      0.22448742      0.14380545
C      -1.25737911      1.12005160      0.31753454
C      -2.57991211      0.65451911      0.31867479
C      -2.91869164     -0.70054996      0.15033580
O      -4.12385692     -1.11234864      0.15306943
C      -1.82375956     -1.56672387     -0.02139126
C      -0.49144470     -1.12918102     -0.02682900
Na      0.00000000      0.00000000      0.00000000
H       3.61946395      0.88306496     -0.86354072
H       4.07895168     -0.69332504     -0.19081920
H       3.70664717      0.63975287      0.91957765
H      -1.07179075      2.18090779      0.45321742
H      -3.38771063      1.37294690      0.45620260
H      -2.02680819     -2.62893670     -0.15640558
H       0.29295074     -1.86467753     -0.16554159
