48
CC(C)CCC(C)(O)C#CC(C)(O)CCC(C)C
C      -1.85340019      2.22970194      1.34284643
C      -3.03903341      1.26692134      1.27374382
C      -4.28091070      1.98175889      0.74289805
C      -2.70502416     -0.01209008      0.47994036
C      -2.46281667      0.19573219     -1.02639174
C      -2.00378913     -1.07499842     -1.77493541
C      -1.96634949     -0.80912822     -3.28138514
O      -2.94155760     -2.12747818     -1.55834634
C      -0.67159127     -1.51177408     -1.31602616
C       0.41467699     -1.84999934     -0.92806875
C       1.74954942     -2.25228267     -0.44729043
C       1.62983807     -3.07211734      0.83762759
O       2.34679282     -3.09311085     -1.43912560
C       2.67791727     -1.03217838     -0.28525930
C       2.25432867     -0.02822054      0.79715377
C       3.11176354      1.25286528      0.80456051
C       4.57384504      0.97429323      1.15696141
C       2.52680215      2.26431157      1.79354416
H      -2.07306622      3.05965135      2.02323350
H      -1.61641340      2.65907710      0.36458287
H      -0.96062884      1.71943882      1.71860946
H      -3.25843930      0.95071332      2.30236704
H      -4.57290557      2.79411502      1.41736841
H      -5.12682032      1.29019914      0.66747815
H      -4.10666434      2.42006253     -0.24494460
H      -3.53301104     -0.72014627      0.61133268
H      -1.82526279     -0.47911115      0.93878375
H      -3.40545962      0.53747150     -1.47220747
H      -1.72440064      0.99141005     -1.18074002
H      -1.26061969     -0.01110061     -3.53694655
H      -1.67263333     -1.71092226     -3.83244841
H      -2.95829604     -0.52865382     -3.65420669
H      -2.77897475     -2.47654969     -0.66633864
H       1.07434088     -4.00106600      0.65865569
H       1.11247520     -2.52609610      1.63324872
H       2.61937914     -3.36953598      1.20304834
H       1.67828820     -3.75288512     -1.69195683
H       3.69079666     -1.39701158     -0.07075087
H       2.75634688     -0.51163024     -1.25021280
H       1.20739819      0.25687953      0.63834993
H       2.30679933     -0.50365935      1.78401013
H       3.07920099      1.70484495     -0.19489201
H       4.65902219      0.45904962      2.11967277
H       5.05747177      0.35636968      0.39465223
H       5.14185402      1.90854939      1.22269976
H       3.11016446      3.19136189      1.79345707
H       2.52191922      1.86583885      2.81386051
H       1.49709742      2.52112912      1.52389305
