36
Cc1c2ccccc2c(C)c2c1ccc1ccccc12
C       2.00046243      2.83340243     -0.36803903
C       1.42644781      1.43552971     -0.20432060
C       2.31211580      0.33085357     -0.06394432
C       3.71935275      0.47017715      0.08230868
C       4.57874052     -0.62366732      0.17876927
C       4.05515066     -1.89945599      0.13812601
C       2.67718667     -2.06611111      0.01054873
C       1.77601698     -0.97159501     -0.08774172
C       0.36110711     -1.14509245     -0.20606820
C      -0.13460546     -2.53015494     -0.58159535
C      -0.56336350     -0.04763460     -0.05604124
C       0.00727112      1.25284329     -0.14407041
C      -0.86171297      2.36322975     -0.16891789
C      -2.24394122      2.24360854     -0.09982478
C      -2.83028611      1.00395585      0.08724409
C      -4.22860802      0.94289087      0.23283778
C      -4.86960112     -0.25593617      0.51507130
C      -4.10912470     -1.39740288      0.68213337
C      -2.71840379     -1.33714964      0.52390512
C      -2.01566385     -0.15346710      0.16423346
H       2.04267388      3.33968746      0.60091200
H       2.99835492      2.82939548     -0.81411278
H       1.41182898      3.42873258     -1.07290619
H       4.18079551      1.45194647      0.14532727
H       5.64821669     -0.47043455      0.29152272
H       4.70592995     -2.76537836      0.21865170
H       2.30839833     -3.08933913      0.02002653
H       0.55237876     -3.01590195     -1.28410763
H      -0.23675929     -3.16149225      0.30554854
H      -1.07445033     -2.48728902     -1.13930941
H      -0.48092808      3.37884721     -0.23631122
H      -2.84726122      3.14784075     -0.14249362
H      -4.83214786      1.84451077      0.14637775
H      -5.94839674     -0.28824990      0.63496764
H      -4.58408864     -2.33765364      0.94935875
H      -2.18308600     -2.25404587      0.74193370
