24
O=C(O)c1cc(C(=O)O)c(C(=O)O)cc1C(=O)O
O      -3.69119858     -0.38796203      0.58311494
C      -2.67503439     -1.02844515      0.40218823
O      -2.67531330     -2.37220311      0.36928930
C      -1.31398582     -0.48496718      0.20870649
C      -0.21611730     -1.16252555      0.76087252
C       1.07355045     -0.61827600      0.66123560
C       2.17840214     -1.41611816      1.21570325
O       2.18037612     -1.97050379      2.29657409
O       3.15709713     -1.57236380      0.31038859
C       1.27049065      0.62374033      0.04595417
C       2.59810820      1.27388136      0.04820890
O       3.43305752      1.21156841      0.92827667
O       2.79546968      1.98884105     -1.07279477
C       0.17379931      1.29754283     -0.51310429
C      -1.10985945      0.73412143     -0.44864932
C      -2.19693577      1.47524981     -1.10719118
O      -2.39942475      2.66938336     -1.01406664
O      -2.87744254      0.68011638     -1.94774128
H      -3.61720498     -2.61729611      0.49321505
H      -0.35946751     -2.11262947      1.27532178
H       3.84372842     -2.09142028      0.78084966
H       3.69840476      2.35822648     -0.96862978
H       0.31169137      2.26506139     -0.99559614
H      -3.58219137      1.25697780     -2.31212583
