11
C1=CCC=C1
C       0.51230663      1.17146341      0.16808175
C      -0.77826662      0.88572219     -0.05519526
C      -0.95245592     -0.59832067     -0.19387422
C       0.45362346     -1.08965889     -0.01088643
C       1.27372596     -0.04950050      0.19546856
H       0.93505544      2.15472834      0.30802632
H      -1.57914408      1.60576968     -0.12636715
H      -1.61465586     -0.99388797      0.58162335
H      -1.33873597     -0.86139515     -1.18279196
H       0.74889274     -2.12732300     -0.04263198
H       2.33965423     -0.09759744      0.35854702
