42
CC1(N)CN(c2c(F)cc3c(=O)c(C(=O)O)cn(C4CC4)c3c2Cl)C1
C       5.40327903     -0.43000800      1.32301659
C       4.42198579     -0.27010099      0.18838914
N       5.01449559     -0.61454479     -1.12400199
C       3.02275458     -0.91761816      0.31891347
N       2.48447358      0.25823600     -0.33970405
C       1.11883308      0.67858958     -0.30796365
C       0.79953483      2.02338453     -0.04603163
F       1.76334689      2.93140614      0.16978135
C      -0.50752378      2.48316743     -0.02123063
C      -1.55485960      1.58833786     -0.23116016
C      -2.93630875      2.12970864     -0.24023790
O      -3.16337041      3.31636622     -0.01224595
C      -4.04890382      1.21791070     -0.55476887
C      -5.45746355      1.64403248     -0.67501506
O      -6.36989559      0.87594343     -0.94294831
O      -5.66483814      2.96117666     -0.46215343
C      -3.73766190     -0.07668401     -0.69346324
N      -2.47398611     -0.63495912     -0.58588506
C      -2.43151029     -2.09454717     -0.34212413
C      -3.32516976     -2.76058472      0.68310093
C      -1.85384978     -2.68081534      0.92539204
C      -1.32367664      0.21398796     -0.46626623
C       0.03351161     -0.20448976     -0.58278470
Cl      0.40522623     -1.75450528     -1.29525951
C       3.63336111      1.05145540      0.06489206
H       5.75674469     -1.46407744      1.39972512
H       4.94576845     -0.16748243      2.28313413
H       6.27639260      0.21750674      1.18709335
H       5.28243224     -1.59415589     -1.20708843
H       4.36050800     -0.44828208     -1.89330058
H       2.64838418     -1.02104915      1.34426742
H       2.89298871     -1.85695649     -0.22178424
H      -0.69064376      3.53919813      0.16116731
H      -4.84709639      3.47051617     -0.24120592
H      -4.51951281     -0.80938968     -0.89264699
H      -2.29962056     -2.65246455     -1.26743620
H      -3.96638662     -2.14949444      1.30722650
H      -3.74820323     -3.72608980      0.42970241
H      -1.50830058     -2.00807062      1.70099794
H      -1.27383660     -3.59251888      0.83931969
H       3.95893655      1.76184230     -0.70009222
H       3.47966096      1.56612243      1.02067963
