52
CCCC(CCC)CCCC1COCCN1CCO
C       2.66138897      0.08776961     -2.56405825
C       3.63767046     -0.49926596     -1.55505801
C       2.96613427     -0.93884364     -0.24920134
C       2.45965624      0.23116305      0.63104072
C       3.38540871      0.46703720      1.85014761
C       4.81522564      0.90973157      1.52517259
C       4.88889766      2.29017410      0.89009918
C       1.02757359     -0.04236512      1.15179081
C      -0.03774383      0.03393367      0.04922601
C      -1.44644229     -0.16224088      0.62761611
C      -2.54931685     -0.27571748     -0.45814591
C      -2.64023517      1.00128873     -1.33357304
O      -3.08238593      2.12783790     -0.56608232
C      -4.40043989      1.87964899     -0.06250312
C      -4.44895671      0.60641176      0.79712681
N      -3.91119985     -0.57072661      0.07853445
C      -4.01586135     -1.77960381      0.92061331
C      -3.66367346     -3.06615218      0.15886971
O      -4.40978547     -3.13189658     -1.05515762
H       1.85753805     -0.62023907     -2.78825564
H       2.21117965      1.01581588     -2.20070609
H       3.18163705      0.31477691     -3.50031696
H       4.11388903     -1.37636142     -2.00976018
H       4.43622660      0.22160897     -1.35639785
H       2.15189763     -1.62785668     -0.50009412
H       3.68485094     -1.54397991      0.31742017
H       2.42113232      1.15866734      0.04998665
H       2.93548013      1.22495665      2.50481234
H       3.43563055     -0.45506600      2.44423231
H       5.31337719      0.17717601      0.88215682
H       5.38606600      0.93413699      2.46164648
H       4.40959731      2.31163548     -0.09224619
H       4.40577957      3.03947178      1.52518374
H       5.93449228      2.58560253      0.75561509
H       0.77456655      0.70009080      1.91958008
H       0.99108467     -1.02459117      1.63971283
H       0.14604798     -0.72868127     -0.71423041
H       0.03446261      1.01184635     -0.43831662
H      -1.66150102      0.66397606      1.31516837
H      -1.42899391     -1.07888701      1.22756976
H      -2.26941720     -1.08950794     -1.13796258
H      -1.67292289      1.25507887     -1.77539139
H      -3.33059922      0.84624461     -2.17332032
H      -5.09934891      1.81167940     -0.90500811
H      -4.69391592      2.74491615      0.54026799
H      -3.88501354      0.77502952      1.72233208
H      -5.49284189      0.42594608      1.07964929
H      -3.42340667     -1.70439277      1.83853565
H      -5.06517620     -1.87663677      1.22901719
H      -3.91285156     -3.94560104      0.76021127
H      -2.59847936     -3.11421721     -0.08574014
H      -4.52638254     -2.20082243     -1.33156328
