30
COC(=O)C1CC1S(=O)(=O)c1ccc([N+](=O)[O-])cc1
C      -4.01084499      1.31741400     -0.34394916
O      -3.57793880     -0.03544902     -0.20949693
C      -2.36972383     -0.16351322      0.39088549
O      -1.69375604      0.72794394      0.88025375
C      -1.93266999     -1.57183644      0.46511722
C      -2.13062860     -2.54805823     -0.67068248
C      -0.74308526     -2.08403672     -0.30354290
S      -0.00078128     -1.02163168     -1.57320549
O      -1.00204376     -0.09777930     -2.06492634
O       0.68751863     -1.92272636     -2.47661424
C       1.25225062     -0.10307691     -0.71191090
C       1.08697956      1.26637317     -0.48331500
C       2.08797894      1.98449008      0.17633404
C       3.25504472      1.32582611      0.58904000
N       4.30887820      2.07796750      1.28289654
O       5.29184532      1.44435049      1.69308484
O       4.15235997      3.29939730      1.41880973
C       3.42839928     -0.04463489      0.34158664
C       2.42407692     -0.75952935     -0.31634766
H      -4.95978280      1.31770041     -0.88728367
H      -3.28364393      1.90061960     -0.91797043
H      -4.17491327      1.76478102      0.64131111
H      -2.04891285     -1.97564505      1.46676117
H      -2.40660719     -3.56656227     -0.42205433
H      -2.58910039     -2.18995950     -1.58734991
H      -0.08065256     -2.79147803      0.17385653
H       0.18204009      1.78106923     -0.80347834
H       1.94201853      3.04771304      0.35932048
H       4.33681132     -0.56221783      0.64524888
H       2.56888344     -1.81751108     -0.52818705
