29
O=S(=O)(N1CCCC1)N1CCCC1
O      -0.26218034      2.27670250      0.00258402
S      -0.06984155      1.02415896     -0.69047719
O       0.04050400      0.97397059     -2.12974729
N       1.26915325      0.24909503     -0.03221695
C       2.51798651      1.05077509     -0.03271257
C       3.62641391      0.01061065     -0.06232038
C       3.04697339     -1.04513635     -0.98123213
C       1.58531208     -1.10587930     -0.55843307
N      -1.28372556     -0.03540855     -0.21012311
C      -2.60290335      0.19444475     -0.84982097
C      -3.60364146     -0.34455052      0.15985118
C      -2.98043924      0.06948273      1.47702526
C      -1.49684892     -0.19134906      1.25380213
H       2.57802372      1.67533570      0.86269621
H       2.57629621      1.68632266     -0.92368819
H       4.57396490      0.41768716     -0.42548341
H       3.78803506     -0.40542583      0.93930551
H       3.54898610     -2.01226328     -0.88969368
H       3.12272577     -0.71750316     -2.02513652
H       0.94934393     -1.41308962     -1.39325038
H       1.44703235     -1.82474479      0.25685109
H      -2.66929570     -0.33693196     -1.80306173
H      -2.77745471      1.26347497     -1.01674657
H      -3.66235169     -1.43761271      0.09480671
H      -4.60691695      0.06552273      0.01587246
H      -3.15141295      1.13819778      1.65432278
H      -3.37861030     -0.48613193      2.33053723
H      -1.23929649     -1.22151152      1.52400448
H      -0.88583197      0.48175727      1.86153566
