18
COC(=O)C=C(C)C
C       3.40970257     -0.62749039     -0.36104194
O       2.25338927      0.20427481     -0.46037788
C       1.13038198     -0.35616641      0.06057714
O       1.05265924     -1.45361967      0.58323462
C       0.02699773      0.62075855     -0.11108255
C      -1.28945051      0.38559844      0.05639684
C      -1.91112502     -0.94083236      0.39932280
C      -2.28379417      1.50604617     -0.10604971
H       3.64744459     -0.83023782      0.68797556
H       4.25146754     -0.09228878     -0.80913552
H       3.25995601     -1.56088231     -0.91282720
H       0.36346625      1.61786218     -0.38214868
H      -2.79018229     -1.11773535     -0.23063884
H      -2.23454265     -0.94551587      1.44503602
H      -1.24736619     -1.79155932      0.23779279
H      -2.97876014      1.28243497     -0.92210032
H      -1.80080720      2.46219271     -0.33390183
H      -2.85943700      1.63716046      0.81617560
