55
COc1cc(F)ccc1C(CNS(=O)(=O)c1ccc(Cl)cc1)N1CCCCCC1
C      -2.67401933      1.08480956     -2.61897077
O      -1.36834306      1.59533083     -2.34147715
C      -1.38995771      2.38579489     -1.21960739
C      -1.95229617      3.66126272     -1.30318378
C      -1.94962076      4.47675244     -0.18232656
F      -2.49384580      5.69839798     -0.25272141
C      -1.38958877      4.04570503      1.01231068
C      -0.80896893      2.77679804      1.08810331
C      -0.78107671      1.92552692     -0.03356194
C      -0.14823686      0.52590178      0.01303291
C       1.12103333      0.41679617      0.91713373
N       2.19453411      1.29770651      0.42265233
S       3.75897753      1.03418481      0.95120697
O       3.69269192      0.51485800      2.29900871
O       4.51275071      2.22256937      0.62229719
C       4.29571938     -0.25888185     -0.13996396
C       4.50281616     -1.55051366      0.35416511
C       4.92748429     -2.55749576     -0.51547660
C       5.14604195     -2.26583179     -1.86338469
Cl      5.66589646     -3.51111112     -2.93082844
C       4.94754886     -0.97363864     -2.35247260
C       4.52315301      0.03781202     -1.48852749
N      -1.19148545     -0.50034257      0.27413304
C      -0.89119884     -1.75650332     -0.41884929
C      -1.81170904     -2.94750210     -0.13659862
C      -3.29360543     -2.59530488     -0.05600654
C      -3.69870579     -2.12672601      1.33924369
C      -3.12083476     -0.78238130      1.76994963
C      -1.59848201     -0.64535318      1.66864807
H      -3.15931940      0.68763909     -1.72007095
H      -3.30013951      1.85665193     -3.07934572
H      -2.56606662      0.26440899     -3.33543986
H      -2.38209960      4.02516609     -2.22962487
H      -1.40550846      4.70058463      1.87850155
H      -0.38611313      2.46953551      2.04086132
H       0.23465046      0.36055496     -1.00513394
H       1.48013590     -0.61795698      0.90652965
H       0.90107740      0.67908651      1.95626699
H       1.98069347      2.27946881      0.24349125
H       4.33994637     -1.77925379      1.40535921
H       5.09022006     -3.56385193     -0.13753179
H       5.12444438     -0.74883841     -3.40156557
H       4.37301326      1.04717881     -1.86628347
H      -0.93375564     -1.56142573     -1.49866959
H       0.13418212     -2.08266816     -0.20467542
H      -1.66952961     -3.67402616     -0.94720986
H      -1.49501164     -3.45636120      0.78240947
H      -3.56725597     -1.85222087     -0.81426678
H      -3.87145763     -3.50067586     -0.28094604
H      -3.41670606     -2.89054629      2.07508186
H      -4.79281527     -2.05678045      1.37938379
H      -3.59956133      0.01908251      1.19122042
H      -3.41281708     -0.61095682      2.81432656
H      -1.34569816      0.25068943      2.24499643
H      -1.08118064     -1.47310550      2.16917436
