18
Clc1cc(Cl)c2c(Cl)ccc(Cl)c2c1
Cl     -3.28950212     -2.63591285     -0.01732079
C      -2.13246547     -1.36447108     -0.00475373
C      -2.54998970     -0.05162379      0.02403584
C      -1.60397003      0.98181016      0.03420034
Cl     -2.32274966      2.56062702      0.07098140
C      -0.18481651      0.73234715      0.01558513
C       0.88108820      1.69967203      0.02334243
Cl      0.65221493      3.41823296      0.05793179
C       2.23155750      1.32459340      0.00303426
C       2.58758739     -0.01080404     -0.02558688
C       1.59383341     -0.98358045     -0.03414244
Cl      2.15409556     -2.62792916     -0.07057315
C       0.21376234     -0.64467762     -0.01423657
C      -0.77648715     -1.65750630     -0.02357716
H      -3.61375958      0.17559263      0.03873461
H       3.01527419      2.08029610      0.00956540
H       3.63922145     -0.28726532     -0.04109134
H      -0.49489476     -2.70940083     -0.04612915
