38
CC(C)OC(=O)C(O)(c1ccc(Br)cc1)c1ccc(Br)cc1
C       3.05008778      2.24201136      0.00105229
C       2.95350295      0.74699573     -0.27828722
C       3.76439983     -0.04656568      0.73868054
O       1.58475125      0.31984658     -0.15074903
C       0.79843505      0.45444104     -1.25682587
O       1.16179675      0.97624957     -2.30986260
C      -0.64399853     -0.08840749     -1.04064332
O      -1.23126299     -0.20450331     -2.36126393
C      -0.60542609     -1.49426514     -0.41353354
C      -0.57754906     -2.64623545     -1.22254634
C      -0.51074939     -3.92347567     -0.65844146
C      -0.46202522     -4.06647566      0.72475796
Br     -0.36942187     -5.79263605      1.48870585
C      -0.47681681     -2.94524208      1.54877505
C      -0.54402052     -1.66863329      0.98337909
C      -1.57663768      0.88414350     -0.29765503
C      -1.11645251      2.03204722      0.37139288
C      -2.00600920      2.87801193      1.04370645
C      -3.36757686      2.58865148      1.05730915
Br     -4.56268568      3.73438187      1.96836079
C      -3.85167538      1.46098030      0.40430744
C      -2.96282238      0.61764987     -0.26650966
H       2.64114233      2.48299087      0.98853786
H       4.08765356      2.58692252     -0.04302761
H       2.46608446      2.81364299     -0.72748161
H       3.33506255      0.51927515     -1.28098106
H       3.39292673      0.12114719      1.75579620
H       3.67138556     -1.12063254      0.54407312
H       4.82394740      0.22412002      0.70196123
H      -0.81849816      0.50248613     -2.89527656
H      -0.61419026     -2.55825856     -2.30760955
H      -0.49796347     -4.79478902     -1.30798298
H      -0.43488182     -3.05062967      2.62970176
H      -0.54415958     -0.80809207      1.65039303
H      -0.06278797      2.29802849      0.39047785
H      -1.62442159      3.75978095      1.55273145
H      -4.91290502      1.22693386      0.40746520
H      -3.35623818     -0.26189693     -0.77695913
