40
CCn1cc(C(=O)O)c(=O)c2cc(F)c(N3CCNCC3)nc21
C      -1.56650432     -2.00358840     -2.19047643
C      -0.86055922     -0.66881159     -2.38309437
N      -1.42334831      0.35903744     -1.49852537
C      -2.46604984      1.18861736     -1.87400905
C      -3.05457845      2.10913057     -1.09634642
C      -4.15585038      2.92792921     -1.64332428
O      -4.57378648      2.81183005     -2.78628657
O      -4.67119565      3.82542213     -0.77600130
C      -2.54230016      2.23410303      0.28403649
O      -3.02483337      3.06909402      1.04699564
C      -1.45187853      1.33678892      0.71719987
C      -0.96821585      1.39994841      2.01873466
C       0.04833090      0.53293042      2.38816432
F       0.47538547      0.57238943      3.65970025
C       0.58366797     -0.37581092      1.46226127
N       1.59434701     -1.27837102      1.82456931
C       2.80937590     -0.68545454      2.42695550
C       3.77444042     -0.15829244      1.33730199
N       4.14633884     -1.18309956      0.34339539
C       2.92506105     -1.77203495     -0.24308179
C       1.93254763     -2.30683142      0.81671259
N       0.08454434     -0.42628526      0.19913626
C      -0.91317173      0.41107704     -0.18075330
H      -2.64037590     -1.91218413     -2.38451404
H      -1.44221453     -2.38111878     -1.17063809
H      -1.15855885     -2.74964912     -2.87954462
H      -0.98037872     -0.35692114     -3.42871474
H       0.22068000     -0.78303082     -2.23963499
H      -2.79479716      1.03738498     -2.90183779
H      -4.24437035      3.82045945      0.11545178
H      -1.37480025      2.09497344      2.74608373
H       2.59130322      0.11635577      3.13813636
H       3.31820173     -1.46822930      3.00461364
H       4.68889872      0.20411358      1.81933710
H       3.32107678      0.69788440      0.82242649
H       4.69442469     -0.74820154     -0.39759998
H       3.22070639     -2.59852873     -0.89851593
H       2.43932868     -1.02250751     -0.87811607
H       1.03710195     -2.72160311      0.33741699
H       2.40200638     -3.14891539      1.34238549
