18
CSc1ncnc2nccnc12
C       3.50748974      0.37232545      0.12805687
S       1.97988665      1.32283882     -0.07895424
C       0.74076159      0.01515275      0.03563730
N       1.21255241     -1.23704032      0.22978187
C       0.29204307     -2.19357664      0.31288298
N      -1.02329534     -2.01308428      0.22139721
C      -1.45948683     -0.77164758      0.03051921
N      -2.78469223     -0.61332958     -0.05846768
C      -3.26722690      0.63380126     -0.25249198
C      -2.44468272      1.72890936     -0.35939736
N      -1.10837288      1.60832792     -0.27496561
C      -0.61161359      0.34321259     -0.07778404
H       4.35906231      1.05656948      0.07847397
H       3.61699963     -0.36695942     -0.67023397
H       3.52673705     -0.12624644      1.10112566
H       0.64163036     -3.20874342      0.46861341
H      -4.34586719      0.72054640     -0.31920463
H      -2.83192513      2.72894362     -0.51498897
