56
CCCCCCCCCCCCCCCCOP(=O)([O-])O.[K+]
C      -8.34917873     -0.25765056     -2.97864025
C      -7.59205032     -0.26536754     -1.65966589
C      -6.19465553      0.33717289     -1.81242142
C      -5.43530235      0.31956089     -0.48364558
C      -4.06686076      1.00326114     -0.55162043
C      -3.06601543      0.27759527     -1.45489121
C      -1.68892912      0.94790027     -1.50492915
C      -0.94459230      1.06794452     -0.16971563
C      -0.70989228     -0.27674428      0.52277299
C       0.09680493     -0.15862913      1.82145971
C       1.56453467      0.21090543      1.58897958
C       2.34777978      0.22332337      2.90544920
C       3.79900087      0.68967782      2.74777611
C       4.64587455     -0.24066985      1.87657888
C       6.11589710      0.19191051      1.86100488
C       6.97201597     -0.73007580      0.99745242
O       6.56698188     -0.61599083     -0.35287572
P       7.32241963     -1.57366465     -1.41679679
O       7.55471227     -2.94917034     -0.86615305
O       6.74993058     -1.32225547     -2.78351612
O       8.73667864     -0.80115732     -1.49140806
K       0.00000000      0.00000000      0.00000000
H      -8.48559862      0.76361551     -3.34596886
H      -9.33786677     -0.70962137     -2.85177758
H      -7.81266270     -0.82850788     -3.74206023
H      -7.51421379     -1.29629052     -1.29636471
H      -8.16284284      0.29864067     -0.91441267
H      -6.27659426      1.36883434     -2.17693675
H      -5.64359534     -0.23294506     -2.56913121
H      -5.31138599     -0.71565496     -0.14016677
H      -6.03588889      0.83542912      0.27703048
H      -4.18996731      2.03809037     -0.89031915
H      -3.67288609      1.04982454      0.46773102
H      -2.96515115     -0.76652595     -1.13876007
H      -3.45104451      0.25085984     -2.47991998
H      -1.05980149      0.38647737     -2.20798556
H      -1.79975445      1.95401434     -1.92931040
H      -1.48779554      1.74054318      0.50289250
H       0.01667372      1.55186895     -0.37460120
H      -0.20641117     -0.96788054     -0.16191083
H      -1.67713198     -0.72658636      0.77383042
H       0.05204839     -1.12705662      2.33858978
H      -0.37485947      0.57703888      2.48566731
H       2.00709992     -0.51372365      0.89504744
H       1.63728563      1.19993959      1.12121387
H       2.33173694     -0.77625019      3.35696608
H       1.84797375      0.89757704      3.61211212
H       3.81482843      1.70319596      2.32965387
H       4.24597742      0.75323477      3.74713919
H       4.25875443     -0.24380962      0.85275725
H       4.57249505     -1.26640024      2.25569805
H       6.51048978      0.19376637      2.88371717
H       6.18124124      1.21694865      1.47530345
H       8.02410028     -0.43984746      1.08358904
H       6.86612709     -1.76584877      1.33556626
H       8.67346623     -0.38254766     -2.37007383
