43
CC(=O)N[C@@H]1[C@@H](NC(=N)N)C=C(C(=O)O)O[C@H]1[C@H](O)[C@H](O)CO
C       0.92711013     -3.60542090      0.76988014
C       1.03884042     -2.34113036     -0.03648240
O       1.87145296     -2.18872120     -0.92518959
N       0.14557393     -1.35338271      0.32340391
C       0.22416981     -0.01879866     -0.29159166
C       1.30120326      0.84584943      0.43023376
N       2.64498670      0.39948896      0.07396192
C       3.66578005      0.46722912      0.95861771
N       3.62110018      1.07175806      2.08783649
N       4.75802302     -0.17693638      0.50810839
C       1.18428996      2.29038276      0.07786333
C       0.11782100      2.79735437     -0.55507813
C       0.12610461      4.24758488     -0.89786969
O       1.01563107      5.05069635     -0.68336265
O      -1.01873429      4.61943228     -1.50198456
O      -0.98149571      2.04678439     -0.90931375
C      -1.11635024      0.74474357     -0.28725711
C      -2.24564527      0.06953230     -1.10268865
O      -3.41212498      0.93004128     -1.08042965
C      -2.71942816     -1.31886855     -0.64971464
O      -3.82407874     -1.72339603     -1.48905402
C      -3.22757248     -1.36521681      0.79497746
O      -3.51461696     -2.72041916      1.14387936
H       1.02402349     -4.46597228      0.10232282
H      -0.04144964     -3.67141600      1.27370172
H       1.72392862     -3.62527932      1.51764205
H      -0.22641559     -1.42650840      1.26572865
H       0.53051115     -0.14994275     -1.33970589
H       1.14626635      0.74303603      1.51298022
H       2.64561443     -0.47681468     -0.45381004
H       4.51520496      0.95835511      2.56782751
H       4.84955206     -0.14897763     -0.50130617
H       5.62617580      0.07701667      0.96019887
H       2.01724205      2.93172652      0.36096236
H      -0.88623161      5.57447633     -1.67372197
H      -1.46253269      0.92133106      0.73936353
H      -1.95609082      0.01786760     -2.16002114
H      -3.09073804      1.82023223     -1.33512666
H      -1.94892913     -2.07680118     -0.80811850
H      -4.35909119     -0.91084736     -1.61226935
H      -2.48925075     -0.99522732      1.50907211
H      -4.15385988     -0.79433279      0.91558716
H      -4.04596985     -3.07050878      0.39994677
