6
Cl/C=C/Cl
Cl      2.10015051      0.43728973      0.00537195
C       0.57298086     -0.33776818     -0.00311430
C      -0.57298087      0.33776817      0.00311455
Cl     -2.10015051     -0.43728972     -0.00537253
H       0.65155548     -1.41712396     -0.01389306
H      -0.65155548      1.41712396      0.01389340
