25
O=C(O)c1ccccc1C(=O)OCCO
O       0.27205859      0.11888328      2.03376760
C      -0.59308773      0.80645825      1.52502466
O      -0.94372701      1.99360415      2.05197377
C      -1.37204764      0.49101219      0.30587317
C      -2.68961626      0.96675170      0.18889003
C      -3.47656817      0.61325167     -0.90960283
C      -2.96061118     -0.22192335     -1.89828634
C      -1.65283166     -0.69648285     -1.79565043
C      -0.85051138     -0.33230939     -0.70184406
C       0.53384663     -0.84383170     -0.70306640
O       0.82585855     -1.99740151     -0.96845711
O       1.39096212      0.18179598     -0.48879571
C       2.78811796     -0.16711136     -0.50828522
C       3.21161607     -0.87262103      0.77973043
O       3.00989177     -0.01712841      1.90373029
H      -0.35701777      2.10538445      2.83014074
H      -3.11769435      1.60337597      0.96075954
H      -4.49645156      0.98373206     -0.98833878
H      -3.57529831     -0.50113497     -2.75124247
H      -1.25369899     -1.34447952     -2.57516829
H       3.01482807     -0.77537673     -1.39113513
H       3.33361372      0.77730726     -0.60598061
H       2.64717792     -1.79387592      0.95209114
H       4.27559001     -1.12211270      0.73641965
H       2.03560061      0.04423249      2.01745234
