8
N#C[S-].[NH4+]
N      -1.37277418      0.00452032      0.00000000
C      -0.21278047      0.00070065      0.00000000
S       1.58555465     -0.00522097      0.00000000
N      -0.00000000      0.00000000      0.00000000
H      -0.61182741     -0.75706514     -0.32673412
H      -0.34648028      0.89822192     -0.35690949
H       0.00371233      0.01811938      1.02659315
H       0.95459536     -0.15927617     -0.34294954
