30
CCCCO[P+](=O)OCCCC
C      -2.32029938      1.17908050     -0.38132229
C      -3.23740828     -0.01712487     -0.18010165
C      -2.85345327     -1.23091735     -1.03234964
C      -1.46938132     -1.80557531     -0.72723194
O      -1.42220025     -2.19702529      0.64169959
P       0.01367575     -2.47923777      1.33538385
O       0.81007270     -3.17469045      0.04754968
O       0.62919958     -0.98695099      1.21078294
C       1.99241609     -0.83152796      1.58755388
C       2.38790390      0.63409730      1.40996137
C       2.31811594      1.07807179     -0.05328694
C       2.74457397      2.52869258     -0.21439302
H      -1.31175253      0.97672433     -0.01017263
H      -2.25298341      1.45000721     -1.43951724
H      -2.70587187      2.04466222      0.16656982
H      -4.26038988      0.27813905     -0.44284918
H      -3.25321832     -0.28869096      0.88152029
H      -3.60351243     -2.01183097     -0.85510930
H      -2.90698223     -0.96709861     -2.09485622
H      -0.70030928     -1.06409149     -0.97521937
H      -1.31309914     -2.68688441     -1.36197931
H       2.12388446     -1.10682434      2.64200131
H       2.64588860     -1.46313654      0.97250877
H       1.71605261      1.26481405      2.00483549
H       3.40533878      0.77836102      1.79184419
H       1.29848374      0.96230612     -0.43705866
H       2.96769067      0.44183496     -0.66556458
H       3.77384559      2.67517280      0.12803701
H       2.09221987      3.19480107      0.35908103
H       2.69149934      2.82484231     -1.26669401
