30
COC(=O)c1ccc(C(C)(C)C)cc1
C       5.47722223      0.37043229     -0.16057183
O       4.06236841      0.38038088     -0.35462509
C       3.36201976     -0.15819612      0.67528565
O       3.84160095     -0.62325947      1.69753614
C       1.90047849     -0.11154847      0.39948879
C       1.37175200      0.42492208     -0.77667729
C      -0.01309382      0.44217258     -0.98216916
C      -0.90955363     -0.07300001     -0.02482663
C      -2.42585555     -0.03543998     -0.28850481
C      -2.88415844      1.42712631     -0.47506028
C      -3.27407157     -0.63743911      0.85459341
C      -2.75020310     -0.83667816     -1.56786454
C      -0.35759389     -0.60780850      1.15074490
C       1.02718729     -0.62738066      1.36104019
H       5.94280411      0.82275059     -1.04056764
H       5.84397113     -0.65630637     -0.06402536
H       5.74808572      0.96414109      0.71815511
H       2.02059384      0.83492426     -1.54650186
H      -0.38413985      0.86912054     -1.91211649
H      -2.64020739      2.03232697      0.40613373
H      -2.41145693      1.90251958     -1.34146704
H      -3.96794525      1.48505609     -0.62987789
H      -3.12517072     -0.09577447      1.79597249
H      -3.03067523     -1.69263816      1.02512127
H      -4.34436062     -0.58784063      0.62064546
H      -3.82946136     -0.85530094     -1.75962823
H      -2.40899158     -1.87501726     -1.48005911
H      -2.27471571     -0.40848114     -2.45705854
H      -0.98476403     -1.02351533      1.93504555
H       1.41833472     -1.05024852      2.28500287
