38
CCC(CO)NCCNC(CC)CO
C      -4.27025091     -1.77893044     -0.16399770
C      -3.25938312     -0.93202587     -0.92721787
C      -2.64167746      0.22756602     -0.12424428
C      -3.70117426      1.29486075      0.23350864
O      -3.05740539      2.40785851      0.86325221
N      -1.98954646     -0.21304089      1.12567955
C      -0.70817013     -0.89979915      0.93204597
C       0.46430721      0.03040194      0.54198217
N       1.73210954     -0.71676048      0.50269436
C       2.91524655      0.16332152      0.31682486
C       2.93505133      0.76631860     -1.10470195
C       4.14316843      1.65426322     -1.37575113
C       4.16705913     -0.70275693      0.59906038
O       4.19619618     -1.83544353     -0.26717230
H      -5.13171414     -1.18606921      0.15618994
H      -4.64373036     -2.58179445     -0.80822186
H      -3.82047248     -2.24411437      0.71824844
H      -2.46481624     -1.58934211     -1.29927367
H      -3.75148433     -0.52354240     -1.81892616
H      -1.90119823      0.73160747     -0.75651132
H      -4.20253726      1.65900561     -0.66910382
H      -4.45407211      0.90423276      0.92581711
H      -3.76270803      3.03126847      1.10910681
H      -1.83790200      0.62804012      1.69189950
H      -0.80344705     -1.71807085      0.20972554
H      -0.46426366     -1.37670810      1.88974256
H       0.26098291      0.46694410     -0.43934920
H       0.53312286      0.84371126      1.27451373
H       1.83179755     -1.21013981      1.39300944
H       2.89576785      0.97169724      1.05860186
H       2.04382582      1.38518235     -1.25777446
H       2.89964540     -0.02767306     -1.86079734
H       5.06853653      1.07330276     -1.42278338
H       4.24944485      2.42134672     -0.60237523
H       4.02648295      2.15973618     -2.34006744
H       5.09629422     -0.14102941      0.47291092
H       4.15069769     -1.07347732      1.63038448
H       3.25621661     -2.06994721     -0.40692934
