17
OCc1nc2ncncc2[nH]1
O       3.04863768      1.05839792      0.03011406
C       2.64585786     -0.30827536     -0.04926584
C       1.16119085     -0.34523400     -0.07274993
N       0.39266005     -1.41633684     -0.14152137
C      -0.89222090     -0.94167028     -0.13457506
N      -2.00495938     -1.69566314     -0.19126123
C      -3.12571491     -0.96054227     -0.16792028
N      -3.24142452      0.38480183     -0.09718998
C      -2.10934581      1.11668414     -0.04141432
C      -0.91226778      0.43925668     -0.06054517
N       0.40100406      0.80149124     -0.02204005
H       4.02220529      1.04613324      0.04355112
H       3.05619999     -0.74700807     -0.96322607
H       3.03032650     -0.84317788      0.82380556
H      -4.05878066     -1.51435562     -0.21123173
H      -2.20544516      2.19272039      0.01510597
H       0.79207684      1.73277803      0.03374208
