73
CCCCCCCC/C=C\CCCCCCCC(=O)O.NCCNCCO
C      -8.21400302     -2.28845946     -0.26925455
C      -7.16315508     -1.21883531     -0.52625156
C      -5.83481824     -1.57143754      0.14500582
C      -4.69798208     -0.60108035     -0.19488761
C      -4.92545255      0.81417180      0.34261029
C      -3.78150236      1.77924496      0.01393155
C      -2.47799458      1.45364713      0.74815428
C      -1.41154723      2.51994465      0.47943409
C      -0.14661012      2.22298201      1.23451620
C       1.06807794      1.94866376      0.73177357
C       1.47271992      1.88426204     -0.71405452
C       1.68043190      0.45262916     -1.22071374
C       2.75813086     -0.36467460     -0.49747287
C       4.15702632      0.24806296     -0.59577077
C       5.20956640     -0.67033905      0.03160442
C       6.60917743     -0.05457492     -0.06068391
C       7.68451522     -0.95016598      0.55408525
C       8.00673603     -2.14969737     -0.29688081
O       7.62790413     -2.38326064     -1.43161166
O       8.83180743     -3.00738750      0.33590724
N      -2.28420342     -0.84369834      1.46031348
C      -2.31675439     -0.76666382     -0.00604822
C      -0.90527523     -0.74926692     -0.62845194
N      -0.01655225      0.18537529      0.08124794
C       1.30913241      0.21371495     -0.54024329
C       2.26990677      1.12244188      0.23648599
O       3.52506791      1.20799170     -0.43222213
H      -8.38974998     -2.41695195      0.80290541
H      -7.90184804     -3.25266792     -0.68314364
H      -9.16189375     -2.00944110     -0.73894571
H      -7.53834857     -0.26271041     -0.14758208
H      -7.01927235     -1.10853643     -1.60709776
H      -5.97007900     -1.61157563      1.23310749
H      -5.52992339     -2.57672831     -0.17184879
H      -4.55849162     -0.56607124     -1.28222919
H      -3.77517354     -1.01145842      0.23067208
H      -5.84071056      1.22792257     -0.09517211
H      -5.07917643      0.78058195      1.42788193
H      -4.10209735      2.79158886      0.29047796
H      -3.60635223      1.78935327     -1.06892223
H      -2.67263733      1.38617730      1.82577115
H      -2.09795586      0.47748936      0.42571879
H      -1.77921097      3.50115149      0.80475899
H      -1.23802507      2.59378576     -0.59813087
H      -0.24666663      2.23709965      2.32015813
H       1.87115522      1.75891618      1.44389482
H       0.72986155      2.37097329     -1.35406855
H       2.39010035      2.46964471     -0.84448885
H       0.72970395     -0.09198930     -1.15004717
H       1.93017760      0.49725854     -2.28846557
H       2.77518422     -1.36770506     -0.94254685
H       2.48518717     -0.50106789      0.55543646
H       4.18009366      1.21770070     -0.08606664
H       4.40669557      0.42611194     -1.64861237
H       5.19118597     -1.64218193     -0.47466897
H       4.95818771     -0.85053308      1.08404121
H       6.60899909      0.90390599      0.47304499
H       6.85188982      0.16227758     -1.10801027
H       8.60880551     -0.37179721      0.66272849
H       7.36739101     -1.29207899      1.54555114
H       8.96996595     -3.72214006     -0.31964059
H      -3.24262108     -0.83029602      1.80701997
H      -1.86555287      0.02558149      1.79637708
H      -2.85240289      0.14587365     -0.29222652
H      -2.87894144     -1.61853949     -0.40279294
H      -0.48518095     -1.76162584     -0.57877553
H      -0.99165558     -0.46882141     -1.68488241
H       0.07066707     -0.16139988      1.03866864
H       1.74090069     -0.79361109     -0.58870448
H       1.23587999      0.57542488     -1.57350756
H       1.86726832      2.13647028      0.34597373
H       2.45169372      0.71790440      1.23914059
H       3.36862322      1.66314431     -1.27737240
