16
O=CC(=O)c1ccccc1
O       2.75911390     -1.32865687      1.03935060
C       2.93498797     -0.29122108      0.42492369
C       1.82408846      0.55637428     -0.15215682
O       2.19209331      1.57166619     -0.74100202
C       0.37754981      0.22497847     -0.03997278
C      -0.53603786      1.11508336     -0.63046346
C      -1.91079870      0.87566962     -0.56931181
C      -2.38944928     -0.25662476      0.08295517
C      -1.49478270     -1.14700258      0.67245620
C      -0.11686608     -0.90937049      0.61255138
H       3.93930542      0.12191865      0.23622426
H      -0.18203444      2.00705435     -1.14567999
H      -2.60485559      1.57371894     -1.03105098
H      -3.45894916     -0.44611876      0.13248163
H      -1.86824462     -2.03237222      1.18252385
H       0.53487957     -1.63509710      1.08834993
