44
CC1(C)CCC(Cc2ccc(Cl)cc2)C1(O)Cn1cncn1
C      -1.59753586     -2.23818318      1.16589502
C      -1.82070528     -1.33938069     -0.06805764
C      -3.23174288     -0.73677832      0.02648267
C      -1.73935659     -2.19394536     -1.34832239
C      -0.25686423     -2.31962327     -1.67526023
C       0.47312056     -1.20148713     -0.89989490
C       1.50075104     -0.51740174     -1.82404254
C       2.46585707      0.40779607     -1.12455849
C       3.44015578     -0.10010127     -0.25322917
C       4.32765035      0.76202683      0.39436352
C       4.24766633      2.13490429      0.17049871
Cl      5.33848615      3.19561585      0.97350077
C       3.29036216      2.65319073     -0.69803285
C       2.40393045      1.79113166     -1.34688058
C      -0.66331607     -0.30628590     -0.30502807
O      -1.05195435      0.62080765     -1.33256009
C      -0.16906730      0.46423083      0.94363681
N      -1.16956186      1.29108309      1.58542191
C      -1.51399733      1.32139521      2.89945706
N      -2.43035784      2.24218230      3.08965757
C      -2.60053611      2.77191327      1.84230094
N      -1.84942656      2.22173078      0.88294247
H      -0.61929677     -2.72807903      1.15825085
H      -1.67678054     -1.66708910      2.09617528
H      -2.35382314     -3.03080282      1.21052295
H      -3.38092954     -0.19222116      0.96200521
H      -3.44761381     -0.05544057     -0.80262296
H      -3.99088608     -1.52777510     -0.00343443
H      -2.21117697     -3.17645189     -1.23738800
H      -2.24424348     -1.69032571     -2.18303072
H      -0.10529011     -2.25807128     -2.75876492
H       0.12362975     -3.29686034     -1.35503716
H       1.01233994     -1.68439220     -0.07351920
H       0.99325818      0.01214502     -2.64008250
H       2.10496976     -1.28957854     -2.32096147
H       3.51992483     -1.17135382     -0.08107610
H       5.08082824      0.35759900      1.06519997
H       3.22696420      3.72348951     -0.87523466
H       1.65447251      2.20554340     -2.01977336
H      -1.56347765      1.34055983     -0.89910144
H       0.23495311     -0.21836770      1.69910316
H       0.62301121      1.16831875      0.67964902
H      -1.08351771      0.67619144      3.65241294
H      -3.29087357      3.57814060      1.62841702
