15
NC(CO)CO
N       0.69365943     -0.67098196      1.31582908
C       0.07932575      0.20071924      0.29053396
C       0.93002423      0.14403193     -0.99264059
O       2.29830534      0.39350958     -0.66204374
C      -1.38700723     -0.16242792      0.00838160
O      -1.98478774      0.75353756     -0.90006852
H       0.14940943     -0.61399896      2.17772900
H       0.63106013     -1.64520071      1.01344132
H       0.12920686      1.22787725      0.67252413
H       0.61214924      0.89925037     -1.71761179
H       0.87299220     -0.84169599     -1.46667413
H       2.41003083      0.00389805      0.23015944
H      -1.97544088     -0.15336850      0.93245610
H      -1.46428866     -1.16528542     -0.42530053
H      -1.99463892      1.63013547     -0.47671532
