44
CCCNC(=O)c1nnc2c(-c3cnccc3OC)cccc2c1N
C       4.96222416      2.85899210     -0.92793827
C       5.61383664      1.54131468     -0.53331585
C       5.06794616      0.98556418      0.78028811
N       3.67495386      0.60980307      0.68682996
C       3.26112943     -0.59929298      0.15902011
O       4.03896832     -1.47584531     -0.20912854
C       1.77608615     -0.76622085      0.03545888
N       1.06042519      0.35142492      0.28806468
N      -0.30065183      0.31754072      0.16565978
C      -0.95713226     -0.80874349     -0.17615809
C      -2.36380002     -0.81440506     -0.26424931
C      -3.15354002      0.41013867     -0.01522020
C      -3.05242620      1.50601961     -0.87463094
N      -3.75069000      2.65930698     -0.74800422
C      -4.59098747      2.73807528      0.29968873
C      -4.76744645      1.72346480      1.22623110
C      -4.03570644      0.54473413      1.07275753
O      -4.12732152     -0.53107063      1.92177580
C      -4.72610640     -0.30428190      3.19252955
C      -3.04282904     -2.00156178     -0.59831470
C      -2.34560360     -3.17623397     -0.83418071
C      -0.95717802     -3.17349140     -0.75275426
C      -0.23452872     -1.99809198     -0.44009346
C       1.18433848     -1.96664308     -0.37493622
N       1.94097519     -3.15750957     -0.54434757
H       5.09768808      3.61243383     -0.14614167
H       3.88982155      2.73638344     -1.10613423
H       5.41369838      3.24160784     -1.84861353
H       5.47286150      0.81497014     -1.34161265
H       6.69296874      1.70129550     -0.42783986
H       5.15505710      1.72584240      1.58202284
H       5.64773355      0.10235653      1.07046191
H       2.95679976      1.30259554      0.88057588
H      -2.38086102      1.48414088     -1.72896828
H      -5.14132969      3.67143858      0.38124834
H      -5.47248784      1.87509691      2.03267128
H      -4.24575280      0.52762433      3.71924067
H      -4.58411863     -1.20676063      3.79378387
H      -5.80360022     -0.13971562      3.09218951
H      -4.13018918     -2.00786376     -0.65954289
H      -2.87997729     -4.09211890     -1.07402294
H      -0.44002076     -4.11472073     -0.92387069
H       1.62728132     -3.74511573     -1.30886457
H       2.94949187     -2.96247767     -0.61648984
