24
CC(=O)c1ccc(NN=C(C#N)C#N)cc1
C      -4.23630466     -0.04159126     -1.20842168
C      -3.54390415     -0.60225530      0.00610950
O      -4.17161381     -1.20557530      0.87421681
C      -2.06899199     -0.41775144      0.14815651
C      -1.30323998      0.25496843     -0.80782219
C       0.07843513      0.40093425     -0.62608741
C       0.72491118     -0.13683189      0.49467914
N       2.10609158      0.04760181      0.73503894
N       2.87694973      0.50432511     -0.29849069
C       4.15409394      0.66664709     -0.12268072
C       4.86339462      1.15301159     -1.27084515
N       5.46205918      1.54392921     -2.18778376
C       4.78604449      0.37498716      1.13158927
N       5.28251383      0.10975198      2.14879706
C      -0.05716831     -0.78149947      1.46170010
C      -1.43756235     -0.93119873      1.28687748
H      -4.12016203      1.04469731     -1.24325010
H      -5.30589628     -0.26600539     -1.14764116
H      -3.84412055     -0.50642112     -2.11662819
H      -1.74909755      0.68224268     -1.70093396
H       0.64975439      0.94214402     -1.37698335
H       2.47508146     -0.63603024      1.40185472
H       0.39697493     -1.17579827      2.36767003
H      -2.01824278     -1.44588528      2.05087879
