39
CCCCC(CC)COC(=O)c1ccccc1
C      -5.21379501      2.05713483      0.19209987
C      -4.59880014      0.73236681     -0.23045369
C      -3.08716228      0.71541370      0.00562479
C      -2.47254261     -0.61905950     -0.43163276
C      -0.98186755     -0.77708264     -0.06028472
C      -0.44117338     -2.16758856     -0.47420442
C      -1.13307021     -3.33456849      0.21776719
C      -0.11622172      0.33104909     -0.69179156
O       1.24589530      0.17038219     -0.26584938
C       2.11080414      1.06692285     -0.80192969
O       1.81948804      1.96266684     -1.57878582
C       3.49404126      0.81678716     -0.31294619
C       3.80279867     -0.22656597      0.57111641
C       5.11920333     -0.41756391      0.99848158
C       6.13111992      0.42918215      0.54690527
C       5.83182156      1.46874601     -0.33255247
C       4.51746889      1.66294680     -0.76206085
H      -4.78470880      2.88816926     -0.37675309
H      -6.29395291      2.04688277      0.01587065
H      -5.04499476      2.24594072      1.25708063
H      -5.07370145     -0.07918042      0.33305389
H      -4.81150077      0.55880486     -1.29175508
H      -2.63494760      1.54107199     -0.55442619
H      -2.88005122      0.88577864      1.06887530
H      -2.59652108     -0.73689300     -1.51560236
H      -3.04863626     -1.42253634      0.04079593
H      -0.88062801     -0.70038791      1.03087996
H       0.62683632     -2.23286075     -0.23452839
H      -0.52684643     -2.29276432     -1.56056491
H      -2.16670247     -3.45012784     -0.11995883
H      -0.60953999     -4.26837806     -0.01235380
H      -1.13163726     -3.20517807      1.30449311
H      -0.16931678      0.27397137     -1.78593664
H      -0.45572819      1.31833760     -0.36267938
H       3.02974165     -0.89858091      0.93528324
H       5.35501642     -1.22782405      1.68421647
H       7.15496265      0.27854907      0.88090300
H       6.62084564      2.12874338     -0.68469677
H       4.29400309      2.47729265     -1.44894170
