26
CCOC(=O)CCCCC(=O)O
C       4.99410557      0.27222180      0.49383746
C       3.75366148      0.49940868     -0.34800582
O       2.63263892     -0.05967317      0.34709079
C       1.44348972      0.08333267     -0.30480852
O       1.29876179      0.62214261     -1.39268964
C       0.34256379     -0.54433685      0.51774421
C      -1.03752125     -0.28125740     -0.08323081
C      -2.14165017     -0.94014535      0.74867801
C      -3.53552116     -0.67925661      0.17776259
C      -4.00181968      0.73471477      0.40324430
O      -3.52204699      1.56224715      1.15844554
O      -5.09408181      1.02680645     -0.32961104
H       5.15093999     -0.79737249      0.66841007
H       5.88006953      0.68360464      0.00219826
H       4.88442748      0.74250444      1.47664474
H       3.59881180      1.57405225     -0.49594445
H       3.87022039      0.00539146     -1.31911369
H       0.52983423     -1.62252107      0.56962876
H       0.38672910     -0.12453621      1.52907385
H      -1.20426065      0.80050719     -0.14905036
H      -1.07336376     -0.66685843     -1.10987111
H      -1.97079708     -2.02354375      0.76809593
H      -2.08578396     -0.58935253      1.78631001
H      -3.54498062     -0.89270850     -0.89674920
H      -4.25600736     -1.34106205      0.67118971
H      -5.29841927      1.95569029     -0.09231018
