41
Nc1nc(/C(=C/CC(=O)O)C(=O)N[C@@H]2C(=O)N3C(C(=O)O)=CCS[C@H]23)cs1
N       2.21663293      2.34256813      3.38969667
C       2.67330652      1.25474897      2.75089900
N       1.99395167      0.63456988      1.81657185
C       2.71880378     -0.44634312      1.33498851
C       2.14714115     -1.27697211      0.30374259
C       2.40421767     -2.60282813      0.21240624
C       1.83711085     -3.60528147     -0.75586124
C       2.78755087     -3.83009101     -1.91443330
O       3.63120450     -4.71562835     -1.93506463
O       2.65405423     -2.93185655     -2.91583764
C       1.24191882     -0.65574712     -0.73804728
O       1.17185767     -1.09749060     -1.88628885
N       0.51064842      0.42656573     -0.33228663
C      -0.43391188      1.13306504     -1.22524032
C      -1.20075758      2.32630515     -0.56217432
O      -0.95970244      3.39824820     -0.05730022
N      -2.36367711      1.66142297     -0.65585838
C      -3.65507657      1.78384840     -0.25300076
C      -4.24729397      3.05007468      0.29770067
O      -5.44783980      3.17443783      0.50586931
O      -3.39597633      4.06062541      0.54992129
C      -4.47105638      0.70963030     -0.30484504
C      -4.08715020     -0.69047761     -0.69008973
S      -2.29821822     -0.99160422     -0.55058057
C      -1.86036272      0.53454716     -1.42729459
C       3.95835214     -0.62005652      1.91801093
S       4.21794128      0.59439966      3.10022410
H       2.89792600      2.94447402      3.83829334
H       1.46471088      2.85108189      2.93780189
H       3.06810683     -3.06037850      0.94595791
H       1.70541681     -4.56482399     -0.24042342
H       0.83911891     -3.35238850     -1.12522648
H       1.98632605     -2.22875453     -2.71413389
H       0.67476294      0.75590628      0.62274606
H       0.05449206      1.43038259     -2.16137934
H      -2.43872625      3.89621680      0.40321377
H      -5.51040852      0.81491698      0.00837242
H      -4.41975024     -0.89915326     -1.71197682
H      -4.58904136     -1.39916677     -0.02355467
H      -2.18903340      0.55926009     -2.47386608
H       4.71242998     -1.36825379      1.71834763
