31
CC(C)CCCC(C)CC=O
C      -3.86193187      1.04472948      0.70477388
C      -2.81857270      0.37009350     -0.18943604
C      -3.24798466     -1.06706581     -0.48802617
C      -1.43286719      0.44460544      0.47850166
C      -0.29719621     -0.07458183     -0.41065567
C       1.06723075      0.13618821      0.25678820
C       2.25905004     -0.25814247     -0.64317258
C       2.27059699     -1.76270829     -0.93390698
C       3.59058599      0.14068938      0.01642736
C       3.87619674      1.62561125     -0.02201928
O       3.20098255      2.45629136     -0.61984277
H      -3.94760928      0.53461815      1.67034175
H      -4.84784539      1.03597349      0.22792882
H      -3.59458655      2.08951901      0.89536862
H      -2.78232253      0.92159463     -1.13747347
H      -4.26453352     -1.09170410     -0.89553828
H      -2.59235911     -1.53348304     -1.22937930
H      -3.23257704     -1.68244806      0.41782805
H      -1.44352459     -0.11859907      1.42046472
H      -1.22458547      1.49008437      0.74031593
H      -0.31841440      0.44727461     -1.37460588
H      -0.44741870     -1.14009343     -0.60783647
H       1.10508971     -0.43605157      1.19267027
H       1.15644972      1.19296719      0.53534557
H       2.16470636      0.26782902     -1.60197984
H       1.38706565     -2.06762374     -1.50232051
H       2.29993026     -2.34552540     -0.00708347
H       3.14597674     -2.03632296     -1.53302767
H       4.43171014     -0.34066997     -0.49623085
H       3.61397869     -0.17860512      1.06452179
H       4.78477888      1.93555573      0.52283547
