9
O=P(O)(O)O.[K+]
O      -0.24613080      0.78617639      1.50416198
P      -0.03334830      0.10651874      0.20379798
O       1.30871382     -0.73455089      0.06744425
O      -1.13888266     -0.95518541     -0.21774560
O       0.03054969      1.04969203     -1.07427175
K       0.00000000      0.00000000      0.00000000
H       2.09036096     -0.17539178      0.22426393
H      -1.22788600     -1.65427297      0.45425037
H      -0.78337673      1.57701390     -1.16190117
