28
O=C1Nc2ccc(Cl)cc2C(=O)N2CCCC12
O      -1.14744290      2.15337057      1.90895788
C      -0.57922944      1.38907865      1.12770602
N       0.73872639      1.08834131      1.34962558
C       1.62203546      0.33051026      0.55918073
C       2.98053478      0.66322991      0.71011475
C       3.97101115      0.01980002     -0.03517497
C       3.61632221     -0.98350586     -0.92676870
Cl      4.83190778     -1.77994295     -1.84516373
C       2.28373130     -1.35837037     -1.06217147
C       1.27476378     -0.71267161     -0.31928388
C      -0.07556664     -1.33082461     -0.41497990
O      -0.16341177     -2.52656192     -0.68689869
N      -1.18241503     -0.55965942     -0.17880805
C      -2.51924177     -1.12390576     -0.19199528
C      -3.40799804      0.01873798      0.26762202
C      -2.69811192      1.24221413     -0.30305091
C      -1.21391130      0.89052673     -0.16621640
H       1.12349481      1.62992369      2.11570383
H       3.28635612      1.45134600      1.39629971
H       5.01263686      0.30671330      0.08698741
H       2.02452630     -2.17936952     -1.72966567
H      -2.75204987     -1.42410843     -1.21999494
H      -2.57722563     -2.00265743      0.45706212
H      -4.43845624     -0.08042185     -0.08396452
H      -3.42001940      0.07263535      1.36279803
H      -2.99300441      2.16823579      0.19813187
H      -2.95376593      1.34062093     -1.36571543
H      -0.64419664      1.29671512     -1.01033741
