44
CCC(O)COC1CCCCC1C(C)(C)C
C       4.50754519     -2.07764784      0.97565354
C       3.20336075     -1.55776635      0.38449369
C       3.31503798     -0.09597114     -0.05943154
O       3.54502294      0.72414575      1.09139627
C       2.04881684      0.40728372     -0.76733852
O       0.94183423      0.33347132      0.14370438
C      -0.22229278      1.02390703     -0.32659761
C      -0.09720839      2.48267275      0.14556986
C      -1.32818577      3.31039444     -0.17826053
C      -2.56927495      2.67559889      0.42172277
C      -2.74144637      1.23724090     -0.05552319
C      -1.50837045      0.34508318      0.24054667
C      -1.73751089     -1.15817812     -0.21777910
C      -1.81464984     -1.29972793     -1.75049460
C      -0.61185357     -2.08551623      0.28772193
C      -3.05549907     -1.70944950      0.37800598
H       5.32310268     -2.00475572      0.24916329
H       4.79164658     -1.51508422      1.87043374
H       4.39959859     -3.12929725      1.25958508
H       2.92548166     -2.18563010     -0.46963359
H       2.42337097     -1.66443270      1.14736835
H       4.17243919      0.02565613     -0.73038267
H       2.68453167      0.76251552      1.55404212
H       1.82953846     -0.20054911     -1.65173486
H       2.20486731      1.44630639     -1.07524874
H      -0.25849443      1.00367908     -1.42280959
H       0.08991770      2.50016383      1.22767439
H       0.78083725      2.95606186     -0.30796868
H      -1.20559599      4.32617800      0.21393518
H      -1.44145727      3.39702989     -1.26565157
H      -3.45297752      3.26236349      0.14613545
H      -2.50319593      2.69346705      1.51654206
H      -2.94864241      1.24870351     -1.13157831
H      -3.63274118      0.84016876      0.44007757
H      -1.39184961      0.31167619      1.33460284
H      -2.62663184     -0.70237065     -2.17578008
H      -1.99866409     -2.34229932     -2.03661267
H      -0.88087511     -0.99649228     -2.23413556
H       0.31044201     -1.95503572     -0.28289360
H      -0.39859376     -1.91270610      1.34797943
H      -0.88541446     -3.14168957      0.17617162
H      -3.15665477     -2.78576920      0.19407402
H      -3.93692995     -1.23846554     -0.06876957
H      -3.09238158     -1.55493309      1.46202439
