50
Cn1nc(-c2cnc3[nH]cc(C(=O)NC4COCC(N)C4)c3n2)c2ccc(F)cc21
C      -5.92028645     -1.16878366      0.15955428
N      -4.58051857     -0.67110130     -0.05040976
N      -4.24710642      0.54488319      0.41630462
C      -2.95049187      0.69260249      0.08640640
C      -2.19675513      1.89515943      0.45781775
C      -2.86128409      3.09059328      0.74438212
N      -2.24766690      4.26035594      1.07671423
C      -0.90972410      4.10409194      1.10829409
N       0.00263118      5.07766388      1.40014205
C       1.26938413      4.55216993      1.33728832
C       1.17711660      3.20414424      1.01193086
C       2.30684312      2.29683498      0.87144134
O       3.46872738      2.68858692      0.86499144
N       1.95840735      0.97075563      0.74700772
C       2.93779043     -0.07748966      0.49840319
C       3.38206040     -0.09979155     -0.97538574
O       4.25038042     -1.19995389     -1.26370104
C       3.62410479     -2.46066305     -1.01023284
C       3.27439362     -2.60512708      0.48064885
N       4.49072150     -2.62984536      1.30829867
C       2.37299506     -1.44287292      0.91024249
C      -0.20879698      2.93103803      0.84961356
N      -0.84113430      1.77370615      0.50547605
C      -2.47990664     -0.44872610     -0.64273002
C      -1.26843327     -0.83211129     -1.26078975
C      -1.18571884     -2.07456829     -1.89943296
C      -2.28702120     -2.91979887     -1.92614862
F      -2.18332041     -4.10508845     -2.54231021
C      -3.50038233     -2.57009309     -1.33575072
C      -3.56653744     -1.32000487     -0.70393130
H      -5.86092260     -2.05401183      0.79770215
H      -6.35312320     -1.42011515     -0.81200399
H      -6.52514734     -0.39864869      0.64562051
H      -3.94619367      3.14675612      0.70508818
H      -0.24163358      6.03204692      1.62452918
H       2.13712620      5.16867287      1.53792219
H       0.96665266      0.75274418      0.68743670
H       3.81948525      0.13501810      1.11618250
H       3.92388779      0.81973233     -1.22127377
H       2.51527359     -0.14511126     -1.64703418
H       4.32070194     -3.24740757     -1.31985171
H       2.72777971     -2.55322754     -1.63559894
H       2.74135870     -3.54913039      0.63942722
H       5.04272362     -3.45406185      1.06784526
H       5.08632260     -1.84286954      1.03383978
H       1.38721947     -1.58200607      0.44574413
H       2.19707393     -1.46648061      1.99362695
H      -0.40872037     -0.16853331     -1.25326307
H      -0.26403997     -2.38347404     -2.38295292
H      -4.34629578     -3.24645925     -1.37746309
