51
COCCNC(=O)c1ccc(Nc2ncc3cc(-c4ccncc4)ccc3n2)cc1
C      -8.16829653     -2.91519334      1.96210665
O      -7.60414507     -3.51918787      0.80470498
C      -8.02643469     -2.89498480     -0.41533596
C      -7.25023127     -1.60687248     -0.69097701
N      -5.81892727     -1.84928960     -0.69466599
C      -4.94269505     -0.87671984     -1.12658621
O      -5.30904008      0.18232227     -1.62380187
C      -3.49311579     -1.15498339     -0.92378542
C      -2.61025573     -0.07560747     -0.84192283
C      -1.23928657     -0.29218383     -0.64964708
C      -0.71588091     -1.58449267     -0.54624132
N       0.63912365     -1.86557233     -0.34916809
C       1.78100442     -1.08373480     -0.20036497
N       2.91883722     -1.77957022     -0.04603299
C       4.05389879     -1.07036212      0.10222238
C       4.10537150      0.31182292      0.10565837
C       5.29491729      1.05600060      0.26144527
C       5.27075494      2.45730380      0.25030862
C       6.50376349      3.24231581      0.40890188
C       6.86939995      4.21348707     -0.53069520
C       8.04313425      4.92638192     -0.34058334
N       8.86911829      4.74509869      0.70988034
C       8.50453565      3.80960951      1.60996515
C       7.35299366      3.04477397      1.50415187
C       4.02867505      3.08249314      0.08082175
C       2.85646328      2.32824819     -0.07027986
C       2.87389413      0.94089482     -0.06102136
N       1.73237713      0.25640890     -0.20982633
C      -1.61533138     -2.65978461     -0.64585088
C      -2.98791410     -2.45439445     -0.83629126
H      -7.84280028     -3.48526195      2.83658487
H      -7.82027452     -1.88527886      2.07578780
H      -9.26116829     -2.94330376      1.91738057
H      -7.82695871     -3.61435736     -1.21728215
H      -9.10664664     -2.71143087     -0.39859303
H      -7.44480019     -0.85407915      0.07959971
H      -7.54368340     -1.18338216     -1.65751600
H      -5.49021245     -2.54198779     -0.03208780
H      -2.98269741      0.94366945     -0.92437631
H      -0.59477440      0.57940979     -0.58807129
H       0.90870188     -2.83757300     -0.31318301
H       4.95101217     -1.67128379      0.22215924
H       6.24293230      0.53335815      0.37787066
H       6.25974738      4.40907935     -1.40713866
H       8.35862375      5.68380105     -1.05259101
H       9.18267893      3.68604084      2.44960153
H       7.12064570      2.31753749      2.27540997
H       3.95435120      4.16870929      0.07656079
H       1.90527613      2.84112626     -0.19657740
H      -1.24991517     -3.68265204     -0.58264321
H      -3.63674620     -3.31942953     -0.93798462
