26
CCC(=O)OCSc1ncnc2[nH]cnc12
C       5.61887480     -0.42355171      0.64371337
C       4.46460326     -0.10407093     -0.28991912
C       3.12613827     -0.24434070      0.39450282
O       2.95438384     -0.57358091      1.55917011
O       2.13461717      0.05322760     -0.48753415
C       0.82087863     -0.05209538      0.07229758
S      -0.42184979      0.36504289     -1.18606487
C      -1.89717615      0.15464646     -0.23865227
N      -1.84178836     -0.22446744      1.06478681
C      -3.00507104     -0.36787021      1.73399421
N      -4.25689115     -0.18111546      1.27407632
C      -4.24343479      0.19054366     -0.01381305
N      -5.32914698      0.46281189     -0.79430634
C      -4.86866406      0.80194579     -2.03616554
N      -3.55477528      0.76323370     -2.09768833
C      -3.14286697      0.38048419     -0.83470581
H       5.62247558      0.24806165      1.50866729
H       6.57389582     -0.31350395      0.12089156
H       5.54944301     -1.45044078      1.01774666
H       4.56364243      0.92537879     -0.64999149
H       4.48998807     -0.78762218     -1.14510385
H       0.65600454     -1.08096961      0.41079532
H       0.73032992      0.64767885      0.91042832
H      -2.92002383     -0.67206431      2.77380987
H      -6.29085492      0.41711670     -0.49313463
H      -5.53273201      1.06552141     -2.84930963
