37
CC(C)C(O)(c1ccc(OC(F)(F)F)cc1)c1cncnc1
C      -2.90527571     -2.12662508      0.53751613
C      -1.39210197     -1.82873028      0.55802716
C      -0.68247566     -3.07054201     -0.01535695
C      -1.02624833     -0.50112951     -0.21029276
O      -1.38713001     -0.73656681     -1.58566372
C       0.47038184     -0.12087939     -0.19459535
C       0.98437428      0.72722955     -1.19658691
C       2.32746301      1.12516763     -1.20808483
C       3.19289627      0.69524512     -0.20675017
O       4.51789137      0.99885725     -0.08828259
C       5.10021072      1.81702728     -1.08833427
F       5.00992823      1.23818914     -2.30507335
F       6.41003162      1.98558310     -0.80090016
F       4.51826501      3.03454876     -1.12301762
C       2.69399250     -0.12539592      0.80635339
C       1.35182824     -0.52246263      0.82002400
C      -1.84181312      0.67282825      0.31029799
C      -1.72538740      1.14400243      1.60799174
N      -2.43232319      2.17623570      2.11213252
C      -3.28725106      2.76182381      1.26236659
N      -3.49257862      2.40943322     -0.01364042
C      -2.75904035      1.36655260     -0.45905765
H      -3.11870194     -3.07050319      1.05185928
H      -3.28624285     -2.21146176     -0.48562338
H      -3.47769347     -1.34979754      1.05306411
H      -1.10600521     -1.73617634      1.61325630
H      -1.01484548     -3.29067182     -1.03541729
H      -0.90371982     -3.95137753      0.59810475
H       0.40415688     -2.95783312     -0.03261147
H      -0.64838190     -1.21769955     -1.99772249
H       0.32880353      1.10298829     -1.98291556
H       2.64918588      1.77912202     -2.01392481
H       3.35524573     -0.45892110      1.60415964
H       1.02198692     -1.14721898      1.64597607
H      -1.03548306      0.69378312      2.31656031
H      -3.86571442      3.59656342      1.64192326
H      -2.94822849      1.09881187     -1.49576148
