35
CCCCCCCCCCC
C       5.02679736      0.17571665     -1.00989958
C       3.98918748      0.18680045      0.10232305
C       2.68088423      0.82702084     -0.36270729
C       1.63939236      0.96165033      0.75231102
C       1.18109326     -0.35151251      1.39462529
C       0.59775919     -1.39151071      0.43278236
C      -0.59438840     -0.92377427     -0.40757086
C      -1.80202016     -0.50211230      0.43210941
C      -2.99778419     -0.14977678     -0.45559323
C      -4.20451204      0.27581952      0.38047427
C      -5.39489745      0.62656515     -0.49783310
H       5.95371766     -0.28840595     -0.65867868
H       5.26039336      1.19318757     -1.33929989
H       4.66855781     -0.39226115     -1.87444565
H       3.81459028     -0.84424084      0.42771583
H       4.38911379      0.73764475      0.96137422
H       2.89296802      1.83156124     -0.75031672
H       2.26521074      0.25658014     -1.20106189
H       2.04859982      1.60513438      1.54150769
H       0.76818196      1.49472933      0.35355641
H       0.44031038     -0.11801448      2.16883518
H       2.02376068     -0.80770990      1.92798516
H       1.38554734     -1.74243361     -0.24429227
H       0.29407327     -2.26838055      1.01863243
H      -0.29306000     -0.10035352     -1.06494553
H      -0.88864251     -1.75071575     -1.06621715
H      -1.54626360      0.36683227      1.04864587
H      -2.07795744     -1.31563706      1.11377329
H      -2.72045512      0.66117505     -1.14011265
H      -3.26594795     -1.01608950     -1.07254577
H      -4.48789827     -0.53292487      1.06408103
H      -3.94358196      1.14459681      0.99598176
H      -5.15444078      1.45476501     -1.17207463
H      -5.70201123     -0.23197827     -1.10357130
H      -6.24627791      0.92805253      0.12036284
