34
[Cl-].[Cl-].[NH3+]CCCCCCCC[NH3+]
Cl      0.00000000      0.00000000      0.00000000
Cl      0.00000000      0.00000000      0.00000000
N       5.37843593      0.43268514     -0.12828054
C       4.06808271      0.37278198      0.56351175
C       2.98140438      0.00228486     -0.43915076
C       1.60323514     -0.09130293      0.22941872
C       0.52072896     -0.48716527     -0.78142251
C      -0.85839070     -0.73832860     -0.15560134
C      -1.53353835      0.53102880      0.37214162
C      -2.92292575      0.27951236      0.97614433
C      -3.97021728     -0.12910766     -0.05413918
N      -5.29464137     -0.23344142      0.60749159
H       5.63530524     -0.47100201     -0.54891340
H       6.13306460      0.68138931      0.52692487
H       5.38966168      1.13733394     -0.87829381
H       4.16272986     -0.37426977      1.35703713
H       3.89637831      1.35885343      1.00495766
H       2.94749118      0.74942564     -1.24185071
H       3.22580844     -0.95948027     -0.90725763
H       1.35686323      0.87448427      0.68445213
H       1.63957166     -0.83263639      1.03667638
H       0.83260759     -1.40969543     -1.28728734
H       0.43830265      0.28384229     -1.55709946
H      -0.76705820     -1.47416741      0.65229943
H      -1.49310249     -1.19145127     -0.92570901
H      -1.61358624      1.27150959     -0.43279590
H      -0.90586708      0.97703330      1.15210698
H      -3.24884700      1.20348262      1.47091038
H      -2.84952517     -0.48526666      1.75926163
H      -4.07258250      0.61525959     -0.84906339
H      -3.76344757     -1.10957260     -0.49072425
H      -6.02466719     -0.50969742     -0.06430678
H      -5.59268973      0.66175486      1.01915667
H      -5.29858493     -0.93607687      1.35945347
