18
Brc1ccc2ccccc2c1
Br      4.24597109     -0.90034686     -0.04480089
C       2.46993880     -0.25251705      0.00087003
C       2.23803809      1.11309940      0.13402063
C       0.92654114      1.59086917      0.16769179
C      -0.16124660      0.70801225      0.06860431
C      -1.48547815      1.17333389      0.10090041
C      -2.55664916      0.28397936      0.00134990
C      -2.31821692     -1.08073860     -0.13165225
C      -1.00786750     -1.56032826     -0.16551454
C       0.08142633     -0.67962263     -0.06662821
C       1.40501227     -1.14737750     -0.09916659
H       3.06581332      1.81269156      0.21217778
H       0.75880273      2.66064539      0.27214978
H      -1.69313726      2.23607981      0.20423793
H      -3.57688896      0.65799882      0.02776333
H      -3.15200097     -1.77376688     -0.20922069
H      -0.84308079     -2.63054355     -0.27004033
H       1.60302254     -2.21146831     -0.20274237
