24
N[C@H](Cc1ccc(O)cc1)C(=O)O
N      -3.13893790     -0.94018708      0.43017269
C      -1.82063452     -0.55510628     -0.18200427
C      -1.12684813      0.54257214      0.64013839
C       0.38077915      0.44058892      0.59678721
C       1.11910944      1.15765806     -0.35371987
C       2.51013199      1.05041605     -0.39634988
C       3.16678107      0.22670511      0.50862971
O       4.52594055      0.15291924      0.43162268
C       2.45395657     -0.49695523      1.45823760
C       1.06148272     -0.39079898      1.50017829
C      -2.10493002     -0.09000279     -1.62612185
O      -1.36307603      0.56748067     -2.33597858
O      -3.32676509     -0.52772862     -2.04001968
H      -3.61094145     -0.08098558      0.73488526
H      -2.93822161     -1.43764805      1.30301530
H      -1.21739208     -1.46758062     -0.25118425
H      -1.44171156      1.54212339      0.31295883
H      -1.42506586      0.47439018      1.69553414
H       0.61888160      1.80074251     -1.07613678
H       3.07688292      1.60626199     -1.13801915
H       4.84264976     -0.46154414      1.11305082
H       2.95992772     -1.14322865      2.16815862
H       0.51225123     -0.96005047      2.24660710
H      -3.71425049     -1.01004177     -1.26649754
