20
O=C(NCO)c1ccccc1
O       1.21210752      1.53102454     -1.27837414
C       0.90341456      0.58521772     -0.56244419
N       1.81843354     -0.32883404     -0.08575345
C       3.15824020     -0.29783884     -0.56680566
O       3.89068785     -1.10299912      0.32327652
C      -0.52136504      0.35077473     -0.19387003
C      -0.88548191     -0.36257119      0.95610535
C      -2.23542679     -0.55573040      1.26051315
C      -3.22306689     -0.03361587      0.42534276
C      -2.86619387      0.68963332     -0.71193494
C      -1.51871086      0.88572129     -1.01940538
H       1.48444923     -1.23781376      0.19796253
H       3.55798226      0.72061870     -0.58214492
H       3.19338168     -0.72681789     -1.57199469
H       3.84157077     -0.63667620      1.17422515
H      -0.13568355     -0.75172825      1.63855227
H      -2.51828625     -1.10609021      2.15473635
H      -4.27310739     -0.18267687      0.66576605
H      -3.63574926      1.10470540     -1.35816417
H      -1.24719580      1.45569695     -1.90601872
