40
Cc1ccc(N2C(=O)c3cccc4c(N)ccc(c34)C2=O)c(C)c1
C       6.25726731      0.44832863     -0.26136486
C       4.76067875      0.35457901     -0.25072153
C       3.98633220      1.29342838     -0.93054371
C       2.59202519      1.21197942     -0.90074174
C       1.93305175      0.19669194     -0.18459311
N       0.49470629      0.12821379     -0.22782536
C      -0.08993438     -1.07884863     -0.63390258
O       0.52079191     -2.05981336     -1.05681189
C      -1.56923642     -1.15688162     -0.60990482
C      -2.18325028     -2.39023587     -0.86606696
C      -3.56680506     -2.49326280     -0.85469430
C      -4.34062912     -1.36035980     -0.60616807
C      -3.75519415     -0.09616756     -0.36510400
C      -4.52159827      1.08174034     -0.14445480
N      -5.92759651      1.05796454     -0.05847897
C      -3.86889003      2.27077817      0.19807938
C      -2.47968435      2.34049453      0.21676151
C      -1.71448828      1.20421335     -0.06721005
C      -2.33396586     -0.01480714     -0.34945174
C      -0.23585688      1.30567167     -0.01538522
O       0.24520064      2.40985121      0.23744320
C       2.71043453     -0.72217822      0.55433725
C       2.12182628     -1.78807022      1.44017423
C       4.11643897     -0.63824419      0.49559460
H       6.71095240     -0.54497687     -0.17926489
H       6.59970763      1.06471438      0.57549817
H       6.61486077      0.89161619     -1.19672068
H       4.45849258      2.09207342     -1.49785317
H       2.02521016      1.94552904     -1.46981618
H      -1.58280608     -3.27554663     -1.06943313
H      -4.04492361     -3.45210025     -1.04030402
H      -5.42077525     -1.48327135     -0.59432093
H      -6.36748743      0.37773264     -0.66863402
H      -6.35885547      1.97250825     -0.15833339
H      -4.44143263      3.16112626      0.44778319
H      -1.99828582      3.28397258      0.46916213
H       2.74969485     -1.93936759      2.32579892
H       2.05406008     -2.73847887      0.90325466
H       1.13306337     -1.50617216      1.81423457
H       4.71690023     -1.35442459      1.05511745
