13
C=CC(=C)C
C       1.97855615      0.15277179     -0.32400393
C       0.77111531      0.70412200     -0.50118931
C      -0.49664888      0.16369244     -0.03618407
C      -1.63776151      0.82708666     -0.28642115
C      -0.51568378     -1.13632627      0.72221829
H       2.12835325     -0.78301921      0.20248559
H       2.86509781      0.64314101     -0.71458563
H       0.72641122      1.64776147     -1.04473403
H      -2.59797717      0.44688150      0.04884001
H      -1.65325716      1.76632092     -0.83087414
H      -0.10914789     -1.94871555      0.11023085
H       0.07296511     -1.05744897      1.64256987
H      -1.53202246     -1.42626780      1.01164766
