27
Nc1ccc(S(=O)(=O)Nc2cnccn2)cc1
N      -3.49861546      1.87153265     -0.76245714
C      -2.67914707      0.93048416     -0.12934645
C      -2.29717194      1.11508889      1.20364606
C      -1.38256205      0.25156364      1.81207659
C      -0.80515252     -0.77457509      1.06152380
S       0.35761204     -1.87441910      1.83733493
O      -0.05729761     -2.03805294      3.21438581
O       0.54042951     -3.02018695      0.97157108
N       1.78433602     -0.98542717      1.86501486
C       2.23995757     -0.49108987      0.62757191
C       2.61838583     -1.27645227     -0.45452952
N       3.01399248     -0.73471403     -1.63334770
C       3.02068848      0.61737467     -1.67186529
C       2.65342644      1.39195761     -0.58200614
N       2.25792196      0.85478871      0.59676650
C      -1.14519310     -0.94962520     -0.28129506
C      -2.06056446     -0.07757404     -0.87611887
H      -3.97071077      1.51598846     -1.58834217
H      -4.13694164      2.35016648     -0.13421595
H      -2.71546247      1.93474639      1.78269102
H      -1.12236980      0.39424386      2.85803620
H       1.75555698     -0.24949597      2.56748368
H       2.61889854     -2.35954351     -0.40901324
H       3.33314584      1.06606376     -2.60833583
H       2.66602834      2.47533032     -0.63033182
H      -0.69769065     -1.74279131     -0.87590759
H      -2.29150047     -0.19538213     -1.93206486
