32
Nc1ccc2ccccc2c1N=Nc1ccccc1
N      -0.09473960     -2.97270440     -0.81065409
C      -1.09650462     -1.97695778     -0.73893663
C      -2.39371649     -2.29469330     -1.14236787
C      -3.43212788     -1.37834217     -0.97418909
C      -3.20753513     -0.13876282     -0.35949586
C      -4.26160253      0.77459872     -0.18985613
C      -4.05238675      2.00311549      0.43632614
C      -2.78679761      2.33404771      0.90384840
C      -1.72966194      1.43657313      0.74227584
C      -1.91132014      0.18737090      0.10728193
C      -0.85578363     -0.74629684     -0.07700662
N       0.43754127     -0.46328020      0.42826614
N       1.20750915     -0.13975424     -0.50374113
C       2.49361011      0.17350941     -0.02174515
C       3.12256222      1.33006088     -0.49612629
C       4.40980482      1.66955800     -0.07239392
C       5.08585639      0.84685553      0.82681343
C       4.47809267     -0.31494128      1.29928828
C       3.19087262     -0.65161722      0.87316391
H      -0.19557470     -3.58975662     -1.60937930
H       0.83189736     -2.54910135     -0.75931732
H      -2.60748273     -3.26229870     -1.58821300
H      -4.42885154     -1.65107535     -1.31514110
H      -5.26161028      0.53263893     -0.54385710
H      -4.87854016      2.69814359      0.56074816
H      -2.61741264      3.28856078      1.39509890
H      -0.74738761      1.72027028      1.11677180
H       2.60024888      1.97261550     -1.20056391
H       4.88304159      2.57412920     -0.44542337
H       6.08741259      1.10995565      1.15789523
H       5.00401290     -0.96013319      1.99826915
H       2.72657342     -1.56228822      1.24351668
