68
CC(C)(C)C(=O)OCC(=O)C1(O)CCC2C3CCC4=CC(=O)C=CC4(C)C3C(O)CC21C
C       6.04893791     -2.00083117      0.30830902
C       6.37913230     -0.74135556     -0.50142746
C       7.55074387      0.01403026      0.14355292
C       6.77890147     -1.14039333     -1.93081724
C       5.12877635      0.13897160     -0.55221265
O       4.37831348      0.23841168     -1.51532517
O       4.92479860      0.77781614      0.63690997
C       3.69487854      1.50189585      0.70194731
C       2.48543688      0.57688763      0.84487150
O       2.62170541     -0.63236571      1.06400086
C       1.08705831      1.21918470      0.87007491
O       0.84642944      1.54050638      2.24874951
C       0.94096636      2.53594177      0.06934191
C      -0.52122260      2.59602131     -0.41619251
C      -1.19332131      1.38093030      0.21741429
C      -2.48123229      0.84134671     -0.41907571
C      -3.53307302      1.95140497     -0.55735122
C      -4.82326945      1.42059407     -1.16513987
C      -5.34588065      0.27695093     -0.33774099
C      -6.56702075      0.36836977      0.21986790
C      -7.10820252     -0.68639968      1.09752287
O      -8.22630124     -0.59605790      1.58863201
C      -6.24445780     -1.84956660      1.35760306
C      -5.03101158     -1.94406965      0.79875679
C      -4.39423847     -0.91863541     -0.13520093
C      -4.20486801     -1.64368990     -1.48746675
C      -3.02045072     -0.36560621      0.43486123
C      -1.88727044     -1.42664440      0.63377169
O      -2.27418027     -2.42170544      1.57801409
C      -0.57127954     -0.81649523      1.16126913
C      -0.05912689      0.33365912      0.28519606
C       0.35335594     -0.22044595     -1.10778074
H       5.20288485     -2.54125999     -0.13180891
H       5.77115736     -1.75169335      1.33872313
H       6.90399641     -2.68487822      0.34837622
H       8.47089840     -0.58032463      0.11250602
H       7.35131657      0.25105073      1.19491578
H       7.74077019      0.96094209     -0.37539448
H       5.98128676     -1.70570237     -2.42739261
H       6.98266548     -0.25581583     -2.54536819
H       7.67979051     -1.76538487     -1.93172085
H       3.60370295      2.14512246     -0.17761286
H       3.73819666      2.14471765      1.58789293
H       0.91537482      0.71026497      2.75817597
H       1.16939065      3.41236864      0.68749141
H       1.59264559      2.56811648     -0.80986368
H      -1.00012259      3.53101002     -0.10610291
H      -0.55912552      2.55230134     -1.51091287
H      -1.46091526      1.68011799      1.24407637
H      -2.25678488      0.49146978     -1.43249776
H      -3.15299289      2.75640070     -1.19664172
H      -3.73954602      2.39683290      0.42445401
H      -5.55011394      2.24006535     -1.22338784
H      -4.65433173      1.09013222     -2.19642465
H      -7.21713535      1.22419457      0.07741544
H      -6.64779528     -2.61788671      2.00536408
H      -4.46621195     -2.84891769      1.00809352
H      -3.69369650     -1.02376156     -2.23076192
H      -3.62067688     -2.56484856     -1.37816999
H      -5.17155107     -1.93009383     -1.92166298
H      -3.25118412      0.02519839      1.43983006
H      -1.69730770     -1.94426925     -0.31111590
H      -1.54620379     -3.06402671      1.64229908
H      -0.74413368     -0.48311154      2.19337425
H       0.18742694     -1.60466400      1.24423958
H      -0.47918106     -0.67818561     -1.64821657
H       1.11944491     -0.99693957     -1.00766013
H       0.76503386      0.55279697     -1.76415299
