25
N=C(c1ccccc1)c1ccccc1
N       0.29613673     -0.21602534     -2.48980613
C       0.15591189     -0.10286985     -1.20339184
C       1.36222745      0.00919334     -0.33018820
C       1.29705076      0.57304361      0.95058385
C       2.44868770      0.66271635      1.73718144
C       3.66896026      0.19824518      1.24767562
C       3.74338084     -0.35118289     -0.03113690
C       2.59462241     -0.44204206     -0.81954990
C      -1.20125840     -0.09102981     -0.60480954
C      -1.55411431     -1.04163941      0.35753159
C      -2.83993338     -1.02772868      0.89844828
C      -3.76655188     -0.07363562      0.47336479
C      -3.41359808      0.86703233     -0.49614472
C      -2.12995991      0.85808891     -1.04175467
H      -0.61651701     -0.30693981     -2.95031339
H       0.36424487      0.96263034      1.34829421
H       2.39469447      1.10219470      2.73006962
H       4.56442243      0.27179763      1.85967307
H       4.69477769     -0.70563662     -0.41914976
H       2.66197102     -0.86654649     -1.81913508
H      -0.84045800     -1.79587883      0.67933520
H      -3.12272086     -1.76376299      1.64710536
H      -4.76882377     -0.06619582      0.89565606
H      -4.13965709      1.60595728     -0.82626733
H      -1.85349584      1.59364787     -1.79327163
