76
CCCCCCCCCC(C)(C)SSC(C)(C)CCCCCCCCC
C       8.29010420      0.78839057      1.12668494
C       7.22304474      1.61688950      0.42849216
C       7.53823342      1.90411618     -1.03877338
C       7.65474911      0.68792798     -1.96523160
C       6.34932833     -0.09065512     -2.17134630
C       6.21091958     -1.30113300     -1.24362651
C       4.99259247     -2.17531348     -1.56267772
C       3.62819138     -1.47788777     -1.48842164
C       3.33386495     -0.87029343     -0.10752862
C       1.91036796     -0.27590547      0.09631746
C       1.58373127      0.75234212     -0.99816977
C       1.87827787      0.41535448      1.46807495
S       0.67969281     -1.67334736      0.03702025
S      -1.17335714     -0.83219782      0.34279340
C      -1.78484215     -1.47921949      1.97982648
C      -1.87216482     -3.01271396      1.93219043
C      -0.83771663     -1.06184340      3.11534789
C      -3.17941670     -0.84854102      2.26349488
C      -4.30979886     -1.22481678      1.29203711
C      -5.66254264     -0.60902422      1.67184634
C      -5.71774364      0.92194838      1.69041916
C      -5.29002312      1.61812225      0.39459447
C      -6.06118584      1.21013806     -0.86432603
C      -7.55941692      1.50943466     -0.78341512
C      -8.25881327      1.19062951     -2.10542739
C      -9.74964122      1.47921558     -2.03077583
H       8.04586787      0.67872764      2.18837849
H       9.26996422      1.27082814      1.05383201
H       8.36848972     -0.21506965      0.69900650
H       7.13556412      2.57603111      0.95372410
H       6.24796080      1.12996071      0.52343839
H       6.76681440      2.57696998     -1.43399954
H       8.48156240      2.46294720     -1.08947027
H       7.96326554      1.07292815     -2.94653914
H       8.46315315      0.02406827     -1.63967415
H       6.33468263     -0.45734871     -3.20602830
H       5.49196195      0.58318880     -2.06593831
H       6.16961348     -0.98693234     -0.19756060
H       7.10691962     -1.92780648     -1.33828059
H       5.11155657     -2.59413463     -2.56990642
H       4.99065178     -3.02970359     -0.87423224
H       3.57576935     -0.70293613     -2.26033893
H       2.86680515     -2.22177960     -1.74625729
H       4.06094998     -0.06714740      0.06845908
H       3.52951996     -1.62527783      0.66670070
H       0.65658575      1.29645957     -0.78739006
H       2.37985479      1.50292701     -1.07057664
H       1.47876260      0.28930777     -1.98549794
H       2.08098912     -0.28945279      2.28172177
H       2.64532516      1.19761453      1.52361347
H       0.92092120      0.90826798      1.66193857
H      -2.43446376     -3.37131087      1.06335282
H      -0.88151650     -3.47959767      1.89968632
H      -2.37191078     -3.39749811      2.82909188
H      -1.23172029     -1.38916571      4.08529945
H      -0.72221463      0.02623961      3.16781500
H       0.15354604     -1.51438083      3.01608436
H      -3.07145007      0.24329748      2.29348552
H      -3.49720598     -1.14414551      3.27315449
H      -4.43944737     -2.31293260      1.28776520
H      -4.05613921     -0.93922029      0.26694864
H      -6.42305286     -0.98899986      0.97912784
H      -5.95213218     -0.97576404      2.66480255
H      -5.09044720      1.29732721      2.50782873
H      -6.73932243      1.22781435      1.94645391
H      -4.22180697      1.44084972      0.22229325
H      -5.39439294      2.70135393      0.53673371
H      -5.63310764      1.75647275     -1.71435733
H      -5.90642093      0.14575285     -1.07406705
H      -7.71055947      2.56652629     -0.53368541
H      -8.01838618      0.91726034      0.01612110
H      -7.81766119      1.78597741     -2.91326042
H      -8.10903769      0.13516110     -2.36094915
H      -9.93410556      2.53417880     -1.80447563
H     -10.22867768      1.24816660     -2.98730372
H     -10.22831300      0.87238237     -1.25569829
