55
COc1c(N2C[C@@H]3CCCN[C@@H]3C2)c(F)cc2c(=O)c(C(=O)O)cn(C3CC3)c12.Cl
C      -0.29929268     -2.27057240      0.76193200
O      -0.59577783     -0.91901688      1.06244318
C      -0.86755702      0.07140254      0.16671996
C       0.22278853      0.75002743     -0.39682460
N       1.55656275      0.40371494     -0.03424522
C       2.27931192      0.97696297      1.06523368
C       3.66865385      0.37544112      1.02657650
C       4.61266265      1.27161298      0.26419155
C       5.96372187      0.61490304      0.18124925
C       5.84912760     -0.90031278      0.17132730
N       4.61751601     -1.32921089     -0.45910734
C       3.44229970     -0.92671994      0.28974567
C       2.38436064     -0.54712301     -0.71949388
C       0.01551396      1.75131686     -1.30506316
F       1.10046215      2.39611299     -1.83850087
C      -1.24338728      2.11334044     -1.68342575
C      -2.33041935      1.45590852     -1.13666147
C      -3.60628555      1.82644924     -1.51030000
O      -3.74508599      2.75145133     -2.35156827
C      -4.70734509      1.20685232     -0.98265001
C      -6.03593381      1.62442524     -1.40204310
O      -7.01657182      1.02232078     -0.88665212
O      -6.27974065      2.61669155     -2.30877383
C      -4.49136247      0.20316195     -0.06629489
N      -3.24060097     -0.18463035      0.32260123
C      -3.07057957     -1.20514375      1.32507555
C      -4.32749059     -1.85558827      1.94974448
C      -3.51711967     -2.56968795      0.93241255
C      -2.13743327      0.41977445     -0.19604281
Cl      0.68422934      0.00000000      0.00000000
H      -0.77649413     -2.64828608     -0.13842543
H      -0.70633331     -2.84837544      1.64458479
H       0.78873109     -2.39608666      0.82662548
H       2.28255431      2.06510919      0.96073437
H       1.76560223      0.68092224      2.02059204
H       4.04805909      0.22797067      2.04634213
H       4.71367176      2.22749691      0.79719159
H       4.17923784      1.43600977     -0.73895063
H       6.40788797      0.91903676     -0.79747144
H       6.65605645      0.96147971      0.96541421
H       6.67968531     -1.31071284     -0.42609198
H       5.90148429     -1.32509605      1.17396637
H       4.56377412     -1.08940453     -1.46757239
H       3.07336816     -1.72884427      0.93849390
H       1.82000664     -1.43658062     -1.09090753
H       2.89741572     -0.03601549     -1.59157925
H      -1.44445415      2.89898445     -2.39923661
H      -6.86352053      3.43170658     -2.13958973
H      -5.33265797     -0.30320430      0.35837480
H      -2.37793759     -0.97400675      2.15450113
H      -5.30367303     -1.44523878      1.78957401
H      -4.21339765     -2.28626831      2.98315928
H      -2.95008711     -3.48599088      1.19920356
H      -4.00997753     -2.67846974     -0.05568291
H      -0.68422934      0.00000000      0.00000000
