54
O=S(=O)(Cc1ccccc1)NCC(c1ccccc1)N1CCCCCC1
O       2.50266115     -1.35913547     -2.49335412
S       2.20311211     -0.18256421     -1.70507396
O       2.47471967      1.15383978     -2.19045079
C       2.86315813     -0.38889092     -0.04377216
C       4.36832775     -0.38109718     -0.09472281
C       5.08287775     -1.58718758     -0.13769745
C       6.47788708     -1.58229003     -0.17555251
C       7.17240383     -0.37444725     -0.17515882
C       6.47353096      0.83057315     -0.14116127
C       5.07832024      0.82888209     -0.10222601
N       0.54441817     -0.27096960     -1.41062455
C      -0.14486310      0.98548793     -1.02619814
C      -1.61903612      0.74859656     -0.54223045
C      -2.45162050      0.33966355     -1.76650877
C      -2.64680470     -1.00843865     -2.10967903
C      -3.37731411     -1.35620006     -3.24736932
C      -3.91868413     -0.36235135     -4.06035419
C      -3.73417804      0.97941588     -3.73521668
C      -3.00827122      1.32966728     -2.59458294
N      -1.82185900     -0.17588543      0.61585840
C      -3.18711635     -0.09697055      1.15857128
C      -3.43047751      0.94550586      2.25440185
C      -3.16807967      0.40324679      3.65756506
C      -1.70973102      0.08689981      3.96567394
C      -1.01362766     -0.81732885      2.95016290
C      -0.75094477     -0.11468935      1.61220657
H       2.48576604     -1.33609916      0.35461314
H       2.49529398      0.43380036      0.57828679
H       4.55941417     -2.54165956     -0.14939317
H       7.02274039     -2.52249235     -0.21128146
H       8.25858687     -0.37198158     -0.20893330
H       7.01479185      1.77362043     -0.15209510
H       4.55212969      1.78194863     -0.08922493
H       0.07707187     -0.80193543     -2.14874161
H       0.42233160      1.48436187     -0.23194732
H      -0.15388368      1.65447695     -1.89422394
H      -1.97725801      1.73761562     -0.22006935
H      -2.23263951     -1.79719481     -1.48343536
H      -3.52744078     -2.40360988     -3.49449676
H      -4.48458437     -0.63470577     -4.94703217
H      -4.14089785      1.75583404     -4.37550523
H      -2.86864286      2.38369741     -2.36599111
H      -3.45684573     -1.09257249      1.53838331
H      -3.91285064      0.07956507      0.35540403
H      -4.48602702      1.24235401      2.20754992
H      -2.85142585      1.85898959      2.07728803
H      -3.51964634      1.14135310      4.38908015
H      -3.77174622     -0.49925159      3.81539137
H      -1.66215918     -0.39264177      4.95120226
H      -1.14922794      1.02607864      4.06253264
H      -1.57012566     -1.75060525      2.81059482
H      -0.04250560     -1.10417957      3.37180681
H       0.12884485     -0.60519568      1.18329179
H      -0.46787307      0.92709700      1.81443972
