23
NNCc1ccccc1.[Cl-].[Cl-].[H+].[H+]
N       2.85118375      0.60999872      1.08912234
N       2.00779287      0.51378464     -0.02781742
C       1.27341713     -0.75690383     -0.08375143
C      -0.18580150     -0.38055864     -0.05620835
C      -0.52580191      0.36079856      1.06695133
C      -1.85691084      0.70158020      1.15243607
C      -2.78727380      0.32136796      0.17171991
C      -2.36323618     -0.41786602     -0.92259785
C      -1.01032711     -0.77732069     -1.03710302
Cl      0.00000000      0.00000000      0.00000000
Cl      0.00000000      0.00000000      0.00000000
H       0.00000000      0.00000000      0.00000000
H       0.00000000      0.00000000      0.00000000
H       2.72518478      1.47965068      1.61305107
H       3.69789737      0.13186735      1.12352331
H       2.69301706      0.42221266     -0.86285508
H       1.46030893     -1.18128716     -1.08380198
H       1.53765093     -1.47434107      0.67761554
H       0.21869195      0.67216909      1.80737718
H      -2.17432728      1.25052496      2.01033422
H      -3.80639384      0.59228991      0.30333303
H      -3.05547590     -0.71885205     -1.68551086
H      -0.69959639     -1.34911530     -1.91201003
