31
COc1ccc(S(=O)(=O)c2coc(S(N)(=O)=O)c2)cc1
C       5.22329541      0.30387320     -1.57664282
O       4.55381443     -0.67116500     -0.78672478
C       3.43212940     -0.26530987     -0.11857603
C       2.81919778     -1.26281894      0.64752917
C       1.66406099     -0.99075998      1.38244550
C       1.11414139      0.29152588      1.33906943
S      -0.34345877      0.64545672      2.27666905
O      -0.55902685      2.07753847      2.30269475
O      -0.33986158     -0.16635135      3.47610083
C      -1.63711169      0.04153859      1.32891156
C      -2.37250807     -1.08651721      1.58269445
O      -3.30596708     -1.26345451      0.61395812
C      -3.18735376     -0.22558705     -0.29339152
S      -4.25768619     -0.11242555     -1.71942525
N      -5.81786162     -0.48958790     -1.22821585
O      -3.83947947     -1.16921230     -2.60933898
O      -4.26420087      1.27902432     -2.10497031
C      -2.15321296      0.60017334      0.13633548
C       1.72421883      1.30151394      0.59063298
C       2.88193905      1.01839582     -0.14185261
H       5.59147774      1.12833448     -0.95718190
H       4.57761416      0.67075342     -2.38133230
H       6.09012059     -0.17817024     -2.03886383
H       3.25280288     -2.26054906      0.67388647
H       1.21194737     -1.77767389      1.98198966
H      -2.35885839     -1.83098661      2.36832704
H      -6.04295632     -1.44269976     -1.51609935
H      -6.47015081      0.20032163     -1.60169360
H      -1.83221672      1.50341235     -0.36673034
H       1.31321857      2.30912865      0.57058916
H       3.33193256      1.82227842     -0.71596748
