20
C1CN2CCN1CC2
C       1.46689076      0.58461304      0.11435576
C       0.27690003      1.38742604      0.71063550
N      -1.02721109      0.69299497      0.51471304
C      -1.17401249      0.47153869     -0.95182392
C       0.01597800     -0.33127486     -1.54810148
N       1.02721080     -0.69299397     -0.51471335
C       0.30211495     -1.45755934      0.53932565
C      -0.88787112     -0.65474324      1.13560830
H       2.20016095      0.36690729      0.90084460
H       1.98993988      1.19439472     -0.63279133
H       0.23020349      2.38157091      0.24896947
H       0.44042623      1.55408691      1.78260806
H      -1.25897475      1.44152449     -1.45734131
H      -2.11473688     -0.05885428     -1.14511240
H       0.50075752      0.25433822     -2.33910153
H      -0.35501232     -1.24603460     -2.02686908
H      -0.06132490     -2.40202736      0.11561249
H       1.00466753     -1.72912774      1.33701498
H      -1.82104969     -1.21484052      0.99738017
H      -0.75505689     -0.54193937      2.21878637
