40
COC1CCCCCCCCCCC1
C      -4.51936845     -0.27800133     -0.43906540
O      -3.25652533      0.36997295     -0.37168847
C      -2.34943926     -0.22501415      0.57143529
C      -1.41634574      0.90228446      1.04572420
C      -0.54405546      1.50005677     -0.06632262
C       0.62246464      2.31683690      0.49829807
C       1.75451052      2.56474160     -0.51121641
C       2.38182067      1.30840645     -1.13798987
C       3.02225075      0.34737929     -0.12730337
C       2.93016818     -1.13246210     -0.52953912
C       1.51188846     -1.72844576     -0.55618207
C       0.80095295     -1.68226584      0.80136431
C      -0.64034865     -2.20928363      0.78269197
C      -1.65842808     -1.44678380     -0.07879772
H      -5.14967123      0.27780938     -1.13874328
H      -5.00641102     -0.27467129      0.54069903
H      -4.42001988     -1.30147455     -0.80864607
H      -2.91674147     -0.56316928      1.44884230
H      -0.80309098      0.53338064      1.87360354
H      -2.02694617      1.71543559      1.46026348
H      -0.16517145      0.69647711     -0.69286983
H      -1.15319121      2.13604790     -0.71979809
H       1.03408962      1.82758784      1.38712050
H       0.24037569      3.28558380      0.84386562
H       2.54246424      3.14363079     -0.01381024
H       1.36964514      3.19696987     -1.32106093
H       3.16223628      1.63318958     -1.83888350
H       1.64072320      0.80364665     -1.76281963
H       2.61550362      0.47564687      0.87772826
H       4.08451345      0.61075745     -0.03944293
H       3.38333140     -1.26162168     -1.52016542
H       3.54087306     -1.71806870      0.16901285
H       1.58743366     -2.77575470     -0.87501041
H       0.92225584     -1.22409602     -1.32487857
H       0.81552272     -0.67351657      1.20912040
H       1.37485216     -2.29575416      1.50798250
H      -0.60550745     -3.24584811      0.42216944
H      -1.01216298     -2.26103243      1.81338238
H      -1.24448584     -1.18092851     -1.05630493
H      -2.44996562     -2.16764932     -0.32276523
