27
COC1OC(CO)C(O)C(O)C1O
C       2.98226317     -0.31204126      1.74379686
O       1.88044351     -1.17097420      1.47573987
C       1.02742329     -0.63355398      0.45673640
O       0.43837710      0.59378814      0.87522024
C      -0.40808719      1.16570630     -0.14118723
C      -0.89475070      2.53674983      0.34433631
O       0.20501271      3.45013682      0.39360994
C      -1.58704923      0.22333549     -0.42244053
O      -2.42511629      0.72858109     -1.46412696
C      -1.05560811     -1.15261506     -0.83314018
O      -2.16211958     -2.05738186     -0.98229190
C      -0.06948894     -1.68310453      0.20313379
O       0.48141833     -2.92292580     -0.26948999
H       2.64154630      0.64070024      2.15963115
H       3.62254478     -0.80012348      2.48366760
H       3.56907631     -0.14140734      0.83604574
H       1.62969643     -0.48375124     -0.44946580
H       0.19159822      1.32110418     -1.04825061
H      -1.64449973      2.95931593     -0.33091424
H      -1.31203936      2.46423422      1.35416837
H      -0.13377762      4.27454224      0.78214596
H      -2.21218945      0.11735974      0.47327799
H      -3.01739289     -0.01562312     -1.69836060
H      -0.58425289     -1.09945971     -1.82263126
H      -1.75445584     -2.94398425     -1.06388158
H      -0.59938780     -1.91645642      1.13522635
H       1.19081546     -3.14215196      0.36855526
