25
O=c1c2ccccc2nc2n1CCC2O
O       0.36134520      2.37908232      1.22728850
C       0.24858922      1.31446108      0.63062499
C       1.43429777      0.52531430      0.22565891
C       2.72575274      1.00814552      0.46394704
C       3.82636229      0.24675098      0.07309488
C       3.63366029     -0.98722578     -0.54938604
C       2.33984701     -1.46404075     -0.78199171
C       1.22521170     -0.71516440     -0.39794282
N      -0.05870750     -1.24262129     -0.64720609
C      -1.05429165     -0.49718569     -0.30445669
N      -0.95035876      0.74450859      0.28560513
C      -2.24648653      1.26689545      0.63047530
C      -3.20151566      0.48923443     -0.26459163
C      -2.51500719     -0.86381482     -0.44575496
O      -2.90543878     -1.74984322      0.58901675
H       2.87211797      1.96978816      0.95043282
H       4.83372702      0.61425527      0.25423897
H       4.49158113     -1.58221404     -0.85381914
H       2.19723445     -2.42738402     -1.26513584
H      -2.29029348      2.34784049      0.46772791
H      -2.42649028      1.06069422      1.69150599
H      -3.27461908      0.99411957     -1.23578630
H      -4.20222670      0.42020023      0.17168379
H      -2.72975055     -1.31517931     -1.41792495
H      -2.33454063     -2.53661728      0.50269515
