35
CCNc1nc(NC(C)(C)C)nc(SC)n1
C       5.13261155     -1.73817857      1.10915654
C       3.76065864     -1.40895354      0.54179826
N       3.28560733     -0.16686405      1.12415080
C       2.06825717      0.28051534      0.62181245
N       1.12038798     -0.58570063      0.28927495
C      -0.01423492     -0.07338232     -0.16493728
N      -0.97219209     -1.01021117     -0.50332829
C      -2.40930140     -0.75349218     -0.37083665
C      -2.90467378      0.21232915     -1.45622002
C      -2.77192184     -0.24470537      1.03180860
C      -3.11766932     -2.10761510     -0.58991945
N      -0.23530254      1.22153331     -0.30524312
C       0.77442998      2.00736749      0.04885730
S       0.58952726      3.77324223     -0.09555652
C      -1.05961761      3.87609966     -0.82971995
N       1.94488937      1.59061913      0.51702577
H       5.85438805     -0.94796021      0.87648606
H       5.09171462     -1.84416701      2.19847067
H       5.50482313     -2.67665646      0.68684433
H       3.83572204     -1.32154388     -0.54897198
H       3.07897968     -2.23519959      0.77627432
H       3.92351229      0.61972217      1.04899612
H      -0.65486577     -1.88189521     -0.08872335
H      -3.99940670      0.26860229     -1.46233378
H      -2.57987982     -0.11057690     -2.45205873
H      -2.53818750      1.23078444     -1.30592376
H      -2.38504385     -0.91468119      1.80835472
H      -3.85875565     -0.17835196      1.15695420
H      -2.36502524      0.75292327      1.22657447
H      -4.20665263     -2.00535157     -0.52240272
H      -2.87911197     -2.52398569     -1.57585152
H      -2.80453592     -2.84504850      0.15876429
H      -1.81076436      3.44682814     -0.16085666
H      -1.31027739      4.92805478     -0.99219421
H      -1.08808877      3.36589969     -1.79652585
