18
Cn1c(=O)ncc2nccnc21
C      -2.16103353     -1.11660377      0.06850914
N      -1.27670548      0.01964081     -0.10505752
C      -1.78389466      1.27775963     -0.41465440
O      -2.99141966      1.45744345     -0.54853429
N      -0.90905756      2.33105091     -0.57120070
C       0.36414646      2.15238625     -0.43235113
C       0.97136775      0.87508204     -0.11074194
N       2.32005185      0.80895084      0.00996149
C       2.78135971     -0.42522847      0.31080559
C       1.93627524     -1.51412838      0.47733070
N       0.58789314     -1.42203630      0.35108934
C       0.10384936     -0.19126992      0.04918039
H      -1.90813641     -1.88876640     -0.66534348
H      -3.20972066     -0.84152571     -0.07325901
H      -2.04616657     -1.51441552      1.08205902
H       1.04113263      3.01229144     -0.56309657
H       3.85681881     -0.52196245      0.41648242
H       2.32323959     -2.49866843      0.71882094
