39
CCn1ccc(NS(=O)(=O)c2ccc(NC(C)=O)cc2)nc1=O
C       5.43158468     -1.64909445     -0.63528489
C       3.96720667     -1.62329247     -1.04702034
N       3.24479348     -0.51313084     -0.42754595
C       2.63999908     -0.70004790      0.79521897
C       1.99950058      0.29567761      1.40611248
C       2.00293531      1.55671125      0.66025536
N       1.33045341      2.65558595      1.20411242
S       0.02201509      2.70334380      2.22878271
O      -0.46798397      4.06376958      2.21687820
O       0.37616906      2.03369939      3.46056399
C      -1.17316718      1.71056862      1.36827522
C      -1.67101114      2.15438180      0.14189396
C      -2.59766788      1.36828434     -0.54841714
C      -3.03383598      0.14367075     -0.02169529
N      -3.96394092     -0.58917207     -0.78697008
C      -4.50747502     -1.82699235     -0.49223483
C      -5.49021210     -2.28204700     -1.54237392
O      -4.27768529     -2.51701976      0.49417592
C      -2.53685053     -0.27683673      1.21547615
C      -1.61134050      0.50481792      1.91561610
N       2.59097500      1.77581516     -0.45839769
C       3.25941330      0.73733501     -1.05994095
O       3.84440598      0.90684817     -2.12662270
H       5.93996668     -0.72319213     -0.92318227
H       5.94678635     -2.48614304     -1.11629282
H       5.53314792     -1.76230908      0.44903390
H       3.48088814     -2.56749324     -0.77405500
H       3.89812892     -1.53503177     -2.13740788
H       2.71609219     -1.68409680      1.24876838
H       1.55011020      0.18462580      2.37950313
H       1.43845387      3.52226206      0.68046582
H      -1.34777764      3.10346229     -0.28011483
H      -2.97190845      1.72820204     -1.50408237
H      -4.26087120     -0.16019188     -1.65474336
H      -6.45317598     -1.79267191     -1.37460149
H      -5.12464778     -2.04463631     -2.54558962
H      -5.61845764     -3.36628797     -1.47549414
H      -2.85650226     -1.20979848      1.67076770
H      -1.24851443      0.16042465      2.88176106
