83
CCCCC(CC)C(=O)OCC(COC(=O)C(CC)CCCC)OC(=O)C(CC)CCCC
C       8.42767062     -0.72984650      2.60671512
C       6.94294392     -1.05618416      2.58120622
C       6.36674942     -0.93981294      1.16917192
C       4.86859375     -1.25629035      1.15677474
C       4.25477415     -1.25023292     -0.25539223
C       4.19863701      0.15518805     -0.87912854
C       3.63773657      0.15173267     -2.29733060
C       2.87072489     -1.87561547     -0.19471260
O       2.55655633     -2.90007856     -0.78419885
O       2.03636276     -1.13908242      0.58453724
C       0.67303695     -1.60237157      0.62192970
C      -0.15692456     -0.54033954      1.34693806
C      -1.59418072     -1.00563249      1.59520238
O      -2.20531999     -1.36998403      0.34556672
C      -3.51354464     -1.73932479      0.44537555
O      -4.13747744     -1.80954168      1.49490754
C      -4.07470194     -2.03881595     -0.93785264
C      -4.28244604     -0.72447258     -1.71352870
C      -5.36962465      0.18288245     -1.15223290
C      -5.35877079     -2.88626446     -0.86190382
C      -5.07855223     -4.33076238     -0.42544362
C      -6.33117129     -5.21040104     -0.42038081
C      -7.33976631     -4.82148890      0.64882441
O      -0.16314489      0.63426161      0.49889430
C      -0.32358120      1.82801900      1.12722311
O      -0.50325301      1.96639103      2.32977778
C      -0.24109023      2.98320918      0.14189883
C      -1.34591055      2.88553365     -0.92262683
C      -2.74770584      2.92303692     -0.32506258
C       1.17739075      3.00974731     -0.46096716
C       1.50675395      4.21154176     -1.35225526
C       1.40979238      5.55424420     -0.62779528
C       1.88398050      6.69661770     -1.51309340
H       8.99102194     -1.41598248      1.96703678
H       8.81694417     -0.81822316      3.62573862
H       8.61078180      0.29143032      2.25935677
H       6.79228050     -2.07308261      2.96178968
H       6.41313021     -0.37431337      3.25685261
H       6.89501335     -1.62921335      0.49986971
H       6.54170952      0.07474181      0.79503910
H       4.71125355     -2.24445416      1.60895996
H       4.34052579     -0.53910703      1.79831657
H       4.86258671     -1.89767316     -0.90181167
H       3.59362087      0.82813712     -0.25964401
H       5.20627619      0.58309072     -0.92050451
H       2.58804986     -0.15775283     -2.31320566
H       3.69411276      1.15859718     -2.72648229
H       4.20937306     -0.52547965     -2.94174207
H       0.64035388     -2.55469720      1.16222502
H       0.31419140     -1.73662670     -0.40524818
H       0.33511089     -0.30119022      2.29848186
H      -1.59417952     -1.87498199      2.26268634
H      -2.17703625     -0.19509987      2.04672175
H      -3.31582597     -2.62817289     -1.47076400
H      -4.53000675     -0.96142533     -2.75548640
H      -3.34174793     -0.16011727     -1.74033388
H      -5.41480682      1.11115905     -1.73182412
H      -5.17131497      0.44937193     -0.10968094
H      -6.35520557     -0.28866072     -1.20983551
H      -6.07269710     -2.42586486     -0.16985828
H      -5.83491756     -2.90710870     -1.85025075
H      -4.61895938     -4.34803414      0.56954692
H      -4.35141158     -4.77593102     -1.11663722
H      -6.02400643     -6.24834455     -0.24539769
H      -6.81190220     -5.18517199     -1.40447411
H      -6.87782294     -4.81787023      1.64065618
H      -8.16664115     -5.53942627      0.66465104
H      -7.76581053     -3.83179049      0.46155275
H      -0.39808842      3.89622448      0.72938773
H      -1.26097029      3.72259071     -1.62426714
H      -1.23528483      1.96569125     -1.51020288
H      -3.49585735      2.90295351     -1.12405677
H      -2.90140734      3.83596513      0.25895532
H      -2.93195891      2.06177408      0.32355952
H       1.91289950      2.96711809      0.35400060
H       1.33798511      2.09975302     -1.05395497
H       2.53120797      4.08074577     -1.72430780
H       0.85999451      4.21697557     -2.23675646
H       0.37461242      5.75152519     -0.32789000
H       2.01843327      5.53060169      0.28390279
H       1.27489553      6.76764959     -2.42031091
H       1.80857411      7.64784813     -0.97625547
H       2.92838325      6.55598909     -1.81002714
