39
CC(C)=NNC(=O)NC1c2ccccc2Oc2ccccc21
C       5.09103866     -0.39826171     -0.65865788
C       3.74665226     -0.18571440     -1.30934625
C       3.71058043     -0.14668150     -2.81686902
N       2.62377887     -0.03580059     -0.67215166
N       2.64780683     -0.07315021      0.69343448
C       1.49964769      0.06458294      1.44290448
O       1.51660622     -0.01101219      2.66646537
N       0.38740733      0.29063778      0.69208532
C      -0.95646949      0.31359966      1.22432308
C      -1.61548140     -1.03367452      1.05047254
C      -1.16104287     -2.15736283      1.76229487
C      -1.76183954     -3.40444875      1.58342175
C      -2.82338182     -3.54388754      0.69285170
C      -3.28676430     -2.43433463     -0.01295521
C      -2.68955107     -1.18407001      0.17031486
O      -3.22740620     -0.14999763     -0.55629395
C      -2.80321696      1.12775479     -0.28689994
C      -3.50737627      2.15473290     -0.92090006
C      -3.15245058      3.48614732     -0.70551172
C      -2.09014301      3.79257968      0.14186515
C      -1.38297768      2.76716395      0.77099357
C      -1.73403924      1.42244855      0.56060411
H       5.32511186      0.44848329     -0.00782046
H       5.07606163     -1.32250431     -0.07477067
H       5.87303547     -0.47916827     -1.41861221
H       2.69007298      0.01004446     -3.17696331
H       4.34459055      0.67015698     -3.17214440
H       4.08761747     -1.09401182     -3.21161746
H       3.50113987     -0.24382128      1.20995044
H       0.53388762      0.16207111     -0.30151998
H      -0.92380638      0.52828747      2.30101415
H      -0.33153988     -2.06149858      2.46115837
H      -1.39908248     -4.26535571      2.13912080
H      -3.29224946     -4.51378573      0.55081061
H      -4.11930890     -2.54064513     -0.70321692
H      -4.33664830      1.91519493     -1.58108235
H      -3.70384022      4.28232929     -1.19839657
H      -1.80884238      4.82886264      0.31069396
H      -0.54757732      3.01410958      1.42386599
