28
C[Si](C)(C)N[Si](C)(C)C
C       1.70681417      1.91316244      0.20641619
Si      1.46646157      0.05545442      0.25597134
C       2.78027502     -0.64810564      1.41832368
C       1.76206221     -0.67230539     -1.43553405
N      -0.03734217     -0.33794222      0.93992659
Si     -1.47371872     -0.21595419      0.04345577
C      -1.62903344     -1.60048884     -1.20530048
C      -1.69353384      1.43787065     -0.79464140
C      -2.89063939     -0.41573960      1.28052610
H       1.07257775      2.38180935     -0.55035427
H       2.74622439      2.15529802     -0.03613959
H       1.47337269      2.36262054      1.17639175
H       2.67110495     -0.22704321      2.42220079
H       3.78196919     -0.40746817      1.05017103
H       2.68952129     -1.73626568      1.48623861
H       1.12698725     -0.20306935     -2.19256882
H       1.57198926     -1.74986321     -1.44262129
H       2.80196819     -0.51696686     -1.74019856
H      -0.13969040      0.11277736      1.84648040
H      -2.65041404     -1.64668615     -1.59607889
H      -0.95849109     -1.45673212     -2.05620504
H      -1.40055595     -2.56778072     -0.74755286
H      -1.55131161      2.26113279     -0.08797878
H      -2.70334669      1.52412029     -1.20816423
H      -0.98876702      1.56585954     -1.62140202
H      -3.85449592     -0.36280646      0.76576669
H      -2.82293703     -1.38196550      1.78918444
H      -2.85705063      0.37707792      2.03368691
