28
NC(N)=NCCC[C@H](N)C(=O)O.[Cl-].[H+]
N       3.32623072      0.01417571      1.36463116
C       2.70677566      0.69221745      0.28087791
N       3.39514256      1.82319993     -0.25183063
N       1.57466892      0.32496902     -0.21900833
C       0.93086359     -0.83275432      0.37135136
C      -0.04516714     -1.48731544     -0.54742793
C      -1.16507896     -0.53764486     -0.96079808
C      -1.93797241     -0.04967452      0.23734723
N      -2.52706311     -1.17763912      0.93364460
C      -2.95464042      0.90340840     -0.23921587
O      -4.16006297      0.68508132     -0.02374571
O      -2.57176072      2.03275311     -0.92125130
Cl      0.00000000      0.00000000      0.00000000
H       0.00000000      0.00000000      0.00000000
H       4.17592264     -0.54930387      1.27786614
H       2.87652998      0.10537875      2.29899404
H       2.87420101      2.60999196     -0.70285766
H       4.42166087      1.89113638     -0.20457963
H       0.47158856     -0.51512811      1.31680285
H       1.74133351     -1.55505468      0.60018656
H      -0.54790107     -2.30056173      0.03027722
H       0.44129663     -1.95029778     -1.40377915
H      -1.88681613     -1.05346942     -1.62238247
H      -0.75262700      0.36346514     -1.47247175
H      -1.28475225      0.46502510      0.98428697
H      -2.72079285     -1.95930165      0.27302177
H      -3.43937446     -0.86890593      1.34084646
H      -2.94220517      2.92624917     -0.59507162
