28
COP(=O)(OC)O/C(=C\Cl)c1ccc(Cl)cc1Cl
C      -1.53199765     -2.09595572      1.43669129
O      -1.28757856     -1.24550611      0.33679554
P      -1.45798945      0.33561498      0.59643639
O      -0.74365853      0.86391337      1.80351136
O      -3.06051728      0.51585408      0.64968178
C      -3.54036782      1.82777100      0.86011449
O      -1.05630885      1.01830097     -0.80500607
C       0.17066128      1.01597752     -1.43691781
C       0.39093122      1.73696051     -2.54261389
Cl     -0.79150542      2.73277869     -3.28574811
C       1.25189061      0.19620174     -0.86935780
C       1.99536001      0.71777318      0.20127060
C       3.03237103     -0.02237549      0.77410902
C       3.33929446     -1.28559412      0.27494767
Cl      4.61584664     -2.19540687      0.98304571
C       2.62176138     -1.81755748     -0.79288032
C       1.58249684     -1.07857319     -1.36492689
Cl      0.72639664     -1.79283781     -2.68756935
H      -2.53763536     -1.92962850      1.83205887
H      -0.78992190     -1.91797971      2.21957777
H      -1.45038165     -3.13339752      1.10299833
H      -3.18455359      2.49437601      0.06993332
H      -4.63288777      1.80911330      0.84069390
H      -3.21083065      2.19710594      1.83489497
H       1.33207822      1.76598694     -3.07717652
H       1.75984723      1.69972940      0.61083211
H       3.58929500      0.39134995      1.61158357
H       2.86790395     -2.80399508     -1.17697991
