46
COC1OC(COS(=O)(=O)c2ccc(C)cc2)C2OC(C)(C)OC12
C       0.35003231     -1.86631423      2.15088105
O       0.76896766     -0.63339474      1.58005768
C       2.05242286     -0.74658114      0.96520562
O       1.99131459     -1.61273898     -0.17755911
C       1.79696252     -0.79726515     -1.35234184
C       0.47929862     -1.19059144     -2.02239997
O      -0.61569548     -0.86919854     -1.17522918
S      -2.04019193     -1.58933282     -1.47998025
O      -1.91269805     -2.99791099     -1.15927228
O      -2.48731228     -1.16156675     -2.79161576
C      -3.12620198     -0.85352163     -0.28234196
C      -3.50354035     -1.57135001      0.85516200
C      -4.36478102     -0.98292674      1.78275634
C      -4.86324539      0.31043355      1.56998363
C      -5.76597393      0.94862242      2.58562184
C      -4.47075391      1.01999541      0.42625904
C      -3.60898934      0.43890577     -0.50532777
C       1.84083619      0.66930807     -0.91620917
O       2.72811972      1.44255971     -1.72732119
C       3.97381463      1.48853139     -1.01804794
C       5.07674333      0.90994272     -1.89347016
C       4.27184606      2.94023742     -0.65412482
O       3.87526032      0.70890570      0.17816070
C       2.47022912      0.61914573      0.44426395
H       1.07628879     -2.21676868      2.89078434
H       0.20320766     -2.62405349      1.37534103
H      -0.60607777     -1.70122537      2.65517769
H       2.78463154     -1.14617917      1.67608665
H       2.61289289     -1.03437064     -2.04400087
H       0.35977765     -0.65423427     -2.96956486
H       0.48458885     -2.26877900     -2.22033772
H      -3.13362472     -2.57947115      1.02934033
H      -4.65022196     -1.54104433      2.67275185
H      -5.16807081      1.45552867      3.35126352
H      -6.43109940      1.68110059      2.11244942
H      -6.40127122      0.19680396      3.06923131
H      -4.83990088      2.02924965      0.25289288
H      -3.32229062      0.99431087     -1.39574091
H       0.85354297      1.14052439     -0.90733118
H       5.15842337      1.45104799     -2.84215114
H       4.86758530     -0.13789877     -2.13549410
H       6.04427874      0.93254903     -1.38145233
H       3.46659511      3.36062330     -0.04067584
H       4.35143428      3.56537803     -1.54989335
H       5.19704465      3.02209908     -0.07400939
H       2.17580132      1.45091459      1.09222224
