28
CCCC1(CC)C(=O)NC(=O)NC1=O
C       3.34699150      0.88383729     -0.53489603
C       2.18859640      0.26616330      0.23589163
C       0.90577979      0.25592845     -0.60460555
C      -0.36986979     -0.27558725      0.12093048
C      -0.13813199     -1.69922100      0.68400761
C      -1.36898591     -2.34200764      1.32313730
C      -1.46095560     -0.28827799     -0.94417635
O      -1.72631388     -1.26353992     -1.64278219
N      -2.10878359      0.89879353     -1.15185518
C      -2.23630128      1.87728364     -0.21639143
O      -3.13726199      2.70726012     -0.27732132
N      -1.37564037      1.84112708      0.83494437
C      -0.72564690      0.70544456      1.23070747
O      -0.42472931      0.54761581      2.41109954
H       3.12929755      1.92196087     -0.80552621
H       4.25518945      0.87588952      0.07592961
H       3.55015116      0.32374471     -1.45323627
H       2.46839488     -0.75398206      0.51805112
H       2.03808472      0.83522487      1.15913901
H       1.08570625     -0.35209234     -1.50243840
H       0.72550619      1.27613178     -0.97098192
H       0.64767593     -1.68119944      1.44851438
H       0.21781203     -2.36118516     -0.11577744
H      -1.10707529     -3.33032062      1.71556992
H      -2.17948048     -2.48030844      0.60253123
H      -1.75061680     -1.74616387      2.15703123
H      -2.84007166      0.87693680     -1.85020886
H      -1.60932102      2.48054340      1.58334631
