25
CNC(=O)COC(=O)c1ccccc1
C       3.86063028      0.53913381      1.18191288
N       3.04760755     -0.03355852      0.14130879
C       2.57726232     -1.32688126      0.24129330
O       2.90215739     -2.09948314      1.13912364
C       1.60847388     -1.72837043     -0.87311929
O       0.25672050     -1.34811975     -0.61234340
C      -0.02815352     -0.04034533     -0.81972146
O       0.77105334      0.80809664     -1.18848354
C      -1.46059033      0.24211651     -0.53484577
C      -2.33500606     -0.73515154     -0.03979675
C      -3.67156420     -0.41649320      0.21296626
C      -4.14022476      0.87502690     -0.02585103
C      -3.27584531      1.85246949     -0.51681894
C      -1.93916483      1.53849101     -0.77051749
H       4.63268042     -0.17027440      1.49178061
H       3.22133970      0.77670098      2.03636687
H       4.32307965      1.45181017      0.79951851
H       2.50110691      0.60199335     -0.44213934
H       1.63337370     -2.82006929     -0.96121475
H       1.95040987     -1.33253035     -1.83747209
H      -1.99127752     -1.74767790      0.15761739
H      -4.34723388     -1.17666498      0.59813626
H      -5.18102246      1.12032227      0.17241960
H      -3.64205864      2.85949006     -0.70166763
H      -1.27375400      2.30996889     -1.15329316
