26
CC(CC(C)(C(=O)O)C(=O)O)C(=O)O
C      -1.93399295      1.28840441     -1.16680445
C      -1.46262977      0.04364853     -0.41026006
C      -0.40091140      0.40174973      0.65895564
C       1.05089314     -0.04750898      0.32618824
C       1.98458683      0.42563026      1.45713726
C       1.47987371      0.55314282     -0.99533079
O       1.51777865     -0.01913482     -2.07255350
O       1.76044047      1.86990690     -0.92736448
C       1.12222732     -1.56382168      0.26725694
O       0.16350564     -2.32603156      0.29618434
O       2.37271708     -2.05319446      0.17786975
C      -2.65219923     -0.64730111      0.24384687
O      -3.73125595     -0.11703259      0.46081107
O      -2.40221315     -1.93064759      0.58927502
H      -1.10424609      1.76383481     -1.69864343
H      -2.69983246      1.02629437     -1.90527802
H      -2.37224288      2.02880675     -0.48826252
H      -1.07244416     -0.64853852     -1.16527789
H      -0.40853285      1.48797321      0.82403570
H      -0.68316243     -0.04093342      1.62464967
H       1.86086379      1.49490537      1.66360585
H       3.03869354      0.26883032      1.19915483
H       1.78715161     -0.11816527      2.38831115
H       1.99239946      2.12387568     -1.84673169
H       2.27667039     -3.02701378      0.10743481
H      -1.48413830     -2.23767939      0.39178969
