57
CC(=O)[C@@]1(C)CC[C@H]2[C@@H]3C=C(C)C4=CC(=O)CC[C@]4(C)[C@H]3CC[C@@]21C
C       5.80001254     -0.51813476      0.47064310
C       4.41360905     -0.59690554      1.06130581
O       4.21200090     -1.30123599      2.05365753
C       3.29602920      0.27509089      0.45439356
C       3.33939708      1.58555341      1.27087656
C       3.50603310      0.59984465     -1.05695882
C       2.12022152      0.59554711     -1.73061986
C       1.12930687      0.45388088     -0.58160253
C      -0.28897073     -0.05915916     -0.88182496
C      -1.00697158      0.74160550     -1.93426911
C      -2.31586431      1.05687242     -1.89986114
C      -2.90512631      1.85883683     -3.03647990
C      -3.19113471      0.60518265     -0.80169063
C      -4.44919061      1.07100163     -0.67576004
C      -5.36655330      0.63140321      0.40049526
O      -6.51770780      1.06291808      0.41973512
C      -4.87857353     -0.37547806      1.40456890
C      -3.36598026     -0.31281179      1.55422629
C      -2.60054745     -0.40954253      0.20436426
C      -2.77124220     -1.83697891     -0.36806232
C      -1.09304307     -0.05396263      0.44892437
C      -0.37477856     -0.88633043      1.53898975
C       1.08554390     -0.43803014      1.75166456
C       1.89120508     -0.43535828      0.43918797
C       2.04410853     -1.90783500     -0.05695713
H       5.84874641     -1.11087095     -0.44519803
H       6.06958289      0.52136864      0.27024355
H       6.52182226     -0.92181298      1.18704203
H       3.18903438      1.39569650      2.33955642
H       2.59271788      2.31573906      0.94794530
H       4.31910142      2.06987863      1.17738543
H       4.13519590     -0.14096772     -1.56127344
H       3.99376467      1.57160456     -1.19718993
H       2.04160937     -0.24008445     -2.43529951
H       1.95850533      1.51874075     -2.29683463
H       1.00246834      1.46160340     -0.15936818
H      -0.21660050     -1.07555144     -1.28133556
H      -0.41439377      1.05059979     -2.79279054
H      -2.17309184      2.05142889     -3.82898369
H      -3.74074878      1.32215759     -3.49877885
H      -3.25684245      2.83369886     -2.68227553
H      -4.89415702      1.79034123     -1.35305353
H      -5.21285964     -1.36968931      1.09256673
H      -5.34174002     -0.15106034      2.37196702
H      -3.10708224      0.63207940      2.05249366
H      -3.06033244     -1.11867866      2.23195890
H      -3.82137431     -2.06446525     -0.58303712
H      -2.23203005     -1.97973060     -1.30956917
H      -2.41393842     -2.59450133      0.33716090
H      -1.08213729      0.98318763      0.82606323
H      -0.88963023     -0.77665545      2.49949218
H      -0.40607329     -1.95203634      1.29162322
H       1.05979421      0.56668539      2.18927388
H       1.55850722     -1.08874019      2.49597548
H       1.08943382     -2.37933511     -0.30131118
H       2.49870043     -2.53853348      0.71420775
H       2.67226440     -1.98807075     -0.94947356
