15
O=S(=O)(Cl)c1ccccc1
O       2.98946452     -0.86947161     -0.66826993
S       2.37357574      0.29697224     -0.07086351
O       2.67973786      1.64787881     -0.49290709
Cl      2.82127752      0.21330956      1.92085110
C       0.61744287      0.07931456     -0.04804698
C      -0.21683625      1.19955236      0.02373289
C      -1.60053341      1.02437256      0.02264213
C      -2.14262285     -0.25952060     -0.05885046
C      -1.30551649     -1.37343978     -0.14440946
C       0.07938993     -1.20808547     -0.14400344
H       0.19677978      2.20466044      0.07831073
H      -2.25892855      1.88831699      0.08042765
H      -3.22238620     -0.39214658     -0.06205729
H      -1.73497276     -2.37024886     -0.21625945
H       0.72412828     -2.08146462     -0.22029691
