13
O=S(=O)(O)c1c[nH]cn1
O       2.36352568     -0.79302928     -0.94061949
S       1.84582708     -0.67486576      0.40243392
O       1.78156782     -1.76005127      1.35322783
O       2.46655705      0.64143504      1.11483161
C       0.19912736     -0.14631751      0.20748273
C      -0.84960991     -0.84268834     -0.35215704
N      -1.91851704      0.00658694     -0.26531416
C      -1.48893081      1.16264213      0.33103784
N      -0.21034033      1.11190596      0.63403542
H       1.74414584      1.30716581      1.21220492
H      -0.91795207     -1.83078660     -0.78605279
H      -2.86122343     -0.17932952     -0.58286144
H      -2.15417724      1.99733240      0.51414668
