50
CCCN(CCC)C(=O)Cc1c(-c2ccc(Cl)cc2)nc2ccc(Cl)cn12
C      -4.19640080     -2.56498078      0.06480010
C      -3.48465109     -1.34279452      0.62121148
C      -2.80685355     -0.53770720     -0.48865300
N      -2.07915584      0.61844881      0.04563070
C      -2.84229929      1.85634222      0.23613133
C      -3.00052528      2.66965975     -1.05193322
C      -1.68322890      3.20180952     -1.59626194
C      -0.73661241      0.59942916      0.43280194
O      -0.19491300      1.58907492      0.92907701
C       0.03134568     -0.70191849      0.20056382
C       1.42825483     -0.63440189      0.73204552
C       2.64645300     -0.43836074      0.10162060
C       2.85262066     -0.17419919     -1.30843568
C       2.16570183      0.86014407     -1.95843421
C       2.37753535      1.10185445     -3.31857917
C       3.28487899      0.31650046     -4.02766613
Cl      3.54329789      0.61249962     -5.70276977
C       3.98925847     -0.70174441     -3.38779609
C       3.77701899     -0.94226995     -2.02756834
N       3.69269016     -0.57478745      0.97971728
C       3.13796352     -0.75865298      2.15612736
C       3.72059796     -0.92699225      3.44430607
C       2.92803779     -1.09800823      4.52004316
C       1.48052433     -1.11395156      4.39244798
Cl      0.52289306     -1.33332898      5.80178074
C       0.92159618     -0.96094125      3.18161984
N       1.74705914     -0.78631248      2.06981031
H      -4.96743322     -2.27532866     -0.65620929
H      -4.67935358     -3.12308162      0.87297863
H      -3.49071785     -3.23532587     -0.43618922
H      -4.20998920     -0.71507436      1.15144383
H      -2.74662340     -1.66196569      1.36564300
H      -3.55161703     -0.18025137     -1.20839724
H      -2.12062341     -1.18054495     -1.04689821
H      -2.36883152      2.47914230      1.00334475
H      -3.83178790      1.58832034      0.62357439
H      -3.48963964      2.06859678     -1.82642664
H      -3.66140639      3.51996198     -0.84591499
H      -1.02611001      2.38753230     -1.91567052
H      -1.86680430      3.84053175     -2.46615380
H      -1.15815611      3.79833762     -0.84373648
H       0.05878816     -0.90046882     -0.87609861
H      -0.49678435     -1.53205749      0.67986509
H       1.48136185      1.50059037     -1.40558582
H       1.84216080      1.90877356     -3.81139908
H       4.70741453     -1.30579799     -3.93523150
H       4.33731174     -1.72856633     -1.52514305
H       4.80114977     -0.90805236      3.52888142
H       3.36270610     -1.22254881      5.50702739
H      -0.14810271     -0.95713332      3.02465826
