65
CCc1nn(CCCN2CCN(c3cccc(Cl)c3)CC2)c(=O)n1CCOc1ccccc1
C      -4.07756731      1.19075754      2.45390801
C      -3.42030113      1.25658001      1.08581175
C      -2.60948080      0.01783541      0.82620658
N      -1.59027932     -0.31006376      1.57189171
N      -1.14270634     -1.48558538      1.02646465
C      -0.00964935     -2.20963315      1.54973287
C       1.32228773     -1.50523667      1.28481828
C       1.64606227     -1.42871802     -0.21458019
N       2.93939855     -0.84179931     -0.59002176
C       4.09919986     -1.63399160     -0.13939112
C       5.44463296     -1.04985150     -0.63749000
N       5.58010531      0.37361578     -0.23593241
C       6.86522950      0.90184180     -0.44163992
C       7.96056948      0.33422624      0.23557757
C       9.26181471      0.82407920      0.08169531
C       9.49770522      1.90831601     -0.75544012
C       8.42882627      2.49516247     -1.42402015
Cl      8.71185749      3.84335642     -2.45877918
C       7.12832985      2.00431495     -1.26740862
C       4.41635936      1.18195620     -0.66487342
C       3.09795102      0.55760985     -0.14864784
C      -1.92404031     -1.83633727     -0.07022400
O      -1.81411851     -2.82397039     -0.77951964
N      -2.85376291     -0.83101980     -0.19010775
C      -3.89692113     -0.84086682     -1.20426926
C      -5.10807861     -1.67513970     -0.77758249
O      -5.84580584     -1.02720872      0.26095463
C      -6.84697613     -0.16200626     -0.08061376
C      -7.60188270      0.30207426      1.00079104
C      -8.64978370      1.20303925      0.80606630
C      -8.94946130      1.64960169     -0.47774339
C      -8.19962954      1.19545907     -1.56118309
C      -7.14909713      0.29270986     -1.36450419
H      -3.32741666      1.16669851      3.25153601
H      -4.71336761      2.06696276      2.61397579
H      -4.69460043      0.29224765      2.55406559
H      -4.18367920      1.40404126      0.32054145
H      -2.74475398      2.11840176      1.04410935
H       0.00260757     -3.21533241      1.11474934
H      -0.16128804     -2.31808839      2.62968085
H       2.10468295     -2.06220045      1.81150184
H       1.28963700     -0.49951808      1.71863590
H       1.58831649     -2.43650600     -0.64620116
H       0.86269556     -0.85406125     -0.72438228
H       4.13185598     -1.68496712      0.95591180
H       4.01355592     -2.66015726     -0.51595522
H       5.49919889     -1.13035287     -1.73142940
H       6.24736641     -1.66794106     -0.22008455
H       7.79880760     -0.49211108      0.92430017
H      10.08252730      0.36253371      0.62411561
H      10.50611199      2.29297920     -0.87634196
H       6.32968224      2.49120067     -1.81692095
H       4.37839553      1.24624109     -1.76023240
H       4.49072397      2.19810982     -0.25850034
H       3.08967544      0.62349811      0.94642940
H       2.26312643      1.16094832     -0.52443378
H      -3.47132357     -1.28141938     -2.11307140
H      -4.18134057      0.19002648     -1.42723446
H      -5.74742165     -1.92537394     -1.63166422
H      -4.77110335     -2.63472634     -0.36826532
H      -7.37303148     -0.04431004      2.00603285
H      -9.23008445      1.55236327      1.65605062
H      -9.76575487      2.35002154     -0.63474733
H      -8.43355798      1.54504180     -2.56384663
H      -6.59103097     -0.02535796     -2.23783005
