21
COc1c(O)c(OC)c(Cl)c(Cl)c1Cl
C       2.31078454     -1.77054292     -0.55884346
O       1.93888881     -1.14755114      0.67620588
C       1.12393292     -0.06328061      0.43800001
C      -0.25910516     -0.27206224      0.50443492
O      -0.70608070     -1.52486757      0.83667131
C      -1.15111765      0.77913720      0.27531403
O      -2.51799299      0.66719578      0.32802171
C      -3.07698341     -0.54379111     -0.16963454
C      -0.63119935      2.06933296      0.04202522
Cl     -1.74346415      3.38475103     -0.22444260
C       0.76093839      2.29323163      0.01801324
Cl      1.38885626      3.89196795     -0.26651010
C       1.64221642      1.21958631      0.22404732
Cl      3.36332528      1.44949831      0.24619430
H       2.98816549     -2.59677667     -0.32374131
H       2.83724810     -1.07788609     -1.22324222
H       1.43260622     -2.18489419     -1.06588647
H       0.07188509     -2.02677015      1.14945700
H      -3.14213778     -1.29042854      0.62693870
H      -4.09892618     -0.32534631     -0.49529913
H      -2.53184015     -0.93050361     -1.03772382
