19
COc1ccc(C(=O)O)cc1
C      -3.42629851      0.06173870      0.29675740
O      -2.45987709     -0.93922088      0.00278123
C      -1.15192521     -0.54355631     -0.04205264
C      -0.24382125     -1.56497776     -0.33460215
C       1.12623752     -1.30113576     -0.41194199
C       1.60141759     -0.00410173     -0.19561873
C       3.06182176      0.23593536     -0.28636985
O       3.90907270     -0.60129428     -0.53597023
O       3.39521742      1.51900073     -0.05935430
C       0.69468004      1.02128059      0.09759970
C      -0.67772392      0.75132407      0.17392994
H      -3.26384032      0.48678506      1.29274987
H      -4.41168222     -0.41411650      0.29467641
H      -3.43190338      0.84251718     -0.47097411
H      -0.60705014     -2.57617823     -0.50394273
H       1.81644841     -2.11050101     -0.64095774
H       4.37115348      1.52510331     -0.15112263
H       1.04415382      2.03672280      0.26910665
H      -1.34608070      1.57467465      0.40368440
