35
CCOP(=S)(OCC)SCCS(=O)(=O)CC
C      -2.39458477      2.87858883      0.57798787
C      -2.92256830      1.48667131      0.29846106
O      -2.08899879      0.54248602      0.95029510
P      -1.62339630     -0.81029415      0.18082922
S      -0.72044595     -2.04790475      1.38792992
O      -3.05636267     -1.36645018     -0.34801629
C      -4.07549167     -1.70520068      0.57992161
C      -4.48549124     -3.14671623      0.35889319
S      -0.55893620     -0.21366244     -1.54459927
C       0.84924369      0.74715415     -0.91613946
C       2.06162371     -0.13578308     -0.68465820
S       3.44196514      0.85631986     -0.14690962
O       3.07213218      1.48122655      1.10806039
O       3.87292954      1.65503616     -1.27790862
C       4.70169598     -0.36393387      0.18726221
C       5.98953829      0.27848367      0.66125731
H      -2.34752715      3.06487620      1.65599035
H      -1.37686518      2.99080750      0.19064170
H      -3.03223293      3.63750689      0.11610634
H      -2.96696692      1.30924784     -0.77978213
H      -3.93455663      1.38374220      0.70148067
H      -3.75044662     -1.55075362      1.61316391
H      -4.92856038     -1.04460540      0.39698076
H      -5.29189777     -3.43134576      1.04052008
H      -3.63724651     -3.82059145      0.51567800
H      -4.82470080     -3.29739826     -0.67132883
H       0.55119506      1.26090027      0.00292379
H       1.07826949      1.52049280     -1.65679804
H       1.88239993     -0.87579970      0.09868754
H       2.37265717     -0.64616878     -1.60206717
H       4.30877725     -1.04140886      0.95101168
H       4.87069785     -0.92300282     -0.73769375
H       6.74589787     -0.48681417      0.85996349
H       6.38811537      0.96551607     -0.09202617
H       5.83013825      0.84877786      1.58195292
