30
CC(=O)OC1=CCC2C3CCC(C3)C12
C       3.94817459      1.67994847      0.71020825
C       2.75084898      0.77647089      0.73715489
O       2.22665525      0.37871812      1.76810437
O       2.38350383      0.49028725     -0.55094662
C       1.26384520     -0.30659229     -0.83555367
C       1.09603446     -0.90655535     -2.01674419
C      -0.20047135     -1.63861970     -2.09664043
C      -0.86426259     -1.39328807     -0.73268209
C      -2.14030331     -0.51767724     -0.78093517
C      -2.77920945     -0.52124833      0.62161245
C      -1.80807051      0.33927523      1.44650478
C      -0.73404483      0.73272809      0.41501227
C      -1.58484387      0.90553910     -0.84702308
C       0.11734382     -0.52086724      0.10292795
H       4.23800735      1.92855922      1.73523396
H       4.78519751      1.17209854      0.22455795
H       3.70201125      2.60653533      0.18540024
H       1.80170894     -0.85661109     -2.83394021
H      -0.01509666     -2.70735457     -2.24799742
H      -0.81026088     -1.27509456     -2.92950328
H      -1.07110957     -2.35301366     -0.24317452
H      -2.83851136     -0.78813205     -1.57581425
H      -3.76999263     -0.05327019      0.59917464
H      -2.88833593     -1.52926135      1.03392212
H      -1.39384563     -0.20804670      2.29909046
H      -2.32453201      1.22684810      1.82929718
H      -0.15658408      1.61304385      0.70518051
H      -2.35902436      1.67339906     -0.73929544
H      -1.00456556      1.11324422     -1.75023034
H       0.42973342     -1.06106310      1.00232549
