36
CCCCCCCCc1ccccc1
C       5.49464704      0.62244614     -1.59950225
C       4.88087298      0.22254016     -0.26719077
C       3.35311190      0.26943060     -0.31744014
C       2.74225613     -0.13754408      1.02531547
C       1.21666675     -0.00163629      1.06526609
C       0.49907843     -0.95678990      0.10794380
C      -1.01989995     -0.98340286      0.30692374
C      -1.69752365      0.34724064     -0.03068643
C      -3.19998882      0.24458925      0.06631389
C      -3.84847970      0.45358237      1.29084240
C      -5.23670737      0.34275034      1.38385822
C      -5.98826849      0.01788017      0.25611805
C      -5.35240689     -0.19846559     -0.96500604
C      -3.96421350     -0.08807409     -1.05997266
H       5.20613377      1.64212535     -1.87399095
H       5.17246218     -0.05299413     -2.39844647
H       6.58683436      0.58253916     -1.54085059
H       5.21383019     -0.78892433     -0.00678920
H       5.24914301      0.89703552      0.51455519
H       3.00036017     -0.40083906     -1.10927979
H       3.02547568      1.28288273     -0.57874996
H       3.02602644     -1.16978320      1.26400190
H       3.16208323      0.49572655      1.81681156
H       0.94402613      1.03551815      0.83957028
H       0.88260268     -0.20269828      2.09058722
H       0.71897349     -0.68719312     -0.93124704
H       0.88156713     -1.97342702      0.26098975
H      -1.24983300     -1.27123006      1.34062621
H      -1.43320732     -1.77482551     -0.33179897
H      -1.35371075      1.14021514      0.64390928
H      -1.41851373      0.66746791     -1.04243785
H      -3.27414872      0.70344881      2.17994725
H      -5.73142666      0.50852955      2.33712939
H      -7.06896347     -0.06876404      0.32931607
H      -5.93747710     -0.45499725     -1.84413174
H      -3.48138256     -0.26435974     -2.01836469
