49
O=C(NCc1cccc(Br)c1)C1c2ccccc2C(=O)N1CCc1ccccn1
O      -2.11600874     -1.01903173     -2.74916042
C      -1.35189933     -0.98257786     -1.78596875
N      -1.62146088     -0.25192524     -0.65172122
C      -2.80479602      0.56007051     -0.52445586
C      -2.70515211      1.46033731      0.67728004
C      -1.74952433      2.48851218      0.71253970
C      -1.62923505      3.31107734      1.83366544
C      -2.46802137      3.12124268      2.93064671
C      -3.42100454      2.10453919      2.90142743
Br     -4.55718793      1.84278935      4.39062660
C      -3.54253318      1.27392271      1.78606021
C      -0.06195861     -1.82693219     -1.72477701
C      -0.33884663     -3.26272814     -1.38258250
C      -1.17542738     -4.17865507     -1.99935171
C      -1.23203659     -5.47733037     -1.48139867
C      -0.45470475     -5.84742296     -0.36853598
C       0.39174893     -4.92303901      0.24480399
C       0.42403994     -3.64525092     -0.28107821
C       1.22774963     -2.49620288      0.14692996
O       2.07199952     -2.52876061      1.02072620
N       0.85971765     -1.42087928     -0.64963962
C       1.67256304     -0.21459185     -0.77160353
C       1.80708368      0.56077793      0.54088073
C       2.51154132      1.87177390      0.31268688
C       3.83852091      2.04063914      0.69945421
C       4.45830792      3.26298714      0.45570513
C       3.74217249      4.27785198     -0.16737263
C       2.42890194      4.02579952     -0.52451893
N       1.80100942      2.84974141     -0.30226563
H      -1.03696280     -0.40445632      0.16281720
H      -3.66504413     -0.11406361     -0.44809441
H      -2.93891554      1.15572912     -1.43439043
H      -1.07905998      2.64494699     -0.13245591
H      -0.87471708      4.09409406      1.84951735
H      -2.36850922      3.76534601      3.80004259
H      -4.28594168      0.47985616      1.78039005
H       0.47429832     -1.75435197     -2.67786367
H      -1.77730239     -3.90197259     -2.86127401
H      -1.88490308     -6.21344895     -1.94694693
H      -0.51249613     -6.86422568      0.01330574
H       1.00447332     -5.19138602      1.09905486
H       1.21418853      0.42137535     -1.53835648
H       2.66078526     -0.51592443     -1.13974998
H       0.81712379      0.76500144      0.96479222
H       2.34268406     -0.02723897      1.29370548
H       4.38647566      1.23663098      1.18197229
H       5.49306574      3.42045583      0.74787908
H       4.19729164      5.24049481     -0.37121190
H       1.82790677      4.78640362     -1.01515473
