22
Cc1cc(Cl)ccc1OCC(O)=S
C       0.07041998      2.35936504     -0.17896492
C      -0.79891265      1.14857125      0.02404292
C      -2.18967484      1.30614348      0.13753546
C      -3.00854185      0.19559971      0.32573179
Cl     -4.71088366      0.39946718      0.46353877
C      -2.45595128     -1.07859509      0.40284483
C      -1.07243313     -1.24763483      0.29118410
C      -0.23784071     -0.14075314      0.10189454
O       1.12581802     -0.19949553     -0.01904527
C       1.73764808     -1.48784553      0.05399141
C       3.22543546     -1.30259556     -0.10311610
O       3.66705999     -0.04268195     -0.27130893
S       4.34684580     -2.52269744     -0.08435992
H       0.78246777      2.45683708      0.64694398
H       0.61774530      2.27823263     -1.12368375
H      -0.52236902      3.27935565     -0.21661831
H      -2.63461385      2.29688733      0.07899526
H      -3.09478015     -1.94581597      0.54974554
H      -0.68492383     -2.25921730      0.35716701
H       1.54541297     -1.94384041      1.03214786
H       1.37843475     -2.12488477     -0.76260030
H       2.91363687      0.57559816     -0.26358942
