21
O=C1CNC(=S)N1c1ccccc1
O       1.08804948     -2.36286029      0.08217748
C       1.55215072     -1.23096277      0.16303575
C       3.04832936     -0.97623865      0.16244958
N       3.08949806      0.45011520      0.22226051
C       1.82595226      1.00322105      0.32789459
S       1.69979723      2.63884257      0.59947660
N       0.88902662     -0.01317515      0.24446294
C      -0.53560022      0.09799356      0.25261809
C      -1.33425808     -0.93694206      0.76848946
C      -2.73110178     -0.84664351      0.78190007
C      -3.36221695      0.28007854      0.26937693
C      -2.59584009      1.31050442     -0.26195709
C      -1.19845694      1.21684466     -0.27303030
H       3.51330723     -1.31928479     -0.76307786
H       3.52057117     -1.39682202      1.05194241
H       3.92692392      1.00939248      0.33941124
H      -0.89066800     -1.83029317      1.20139437
H      -3.32067329     -1.66058449      1.19651028
H      -4.44648628      0.35162978      0.27716379
H      -3.08123226      2.18869521     -0.68090480
H      -0.65707213      2.02648944     -0.75164874
