42
CCN(CC)C(=O)CCC(=O)OCn1ncc2c(=O)[nH]cnc21
C      -4.33457207     -2.73368550      1.02911462
C      -3.94462753     -1.28274235      1.26402241
N      -3.63148240     -0.59741897      0.00973542
C      -4.73205027      0.09376438     -0.66473174
C      -4.92581006      1.50569743     -0.13322924
C      -2.31825724     -0.63566053     -0.44865234
O      -1.43369124     -1.25094525      0.14934713
C      -2.01464998      0.08859602     -1.75193059
C      -0.51683339      0.12753299     -2.04123156
C       0.20107054      1.04071967     -1.07727448
O      -0.32502078      1.94601287     -0.44386870
O       1.52564162      0.74829285     -1.06099015
C       2.26526766      1.59261841     -0.17757436
N       3.67651659      1.27316876     -0.32529114
N       4.39932406      1.80174705     -1.35404210
C       5.62396574      1.28675737     -1.17959521
C       5.68933188      0.46162234     -0.05319361
C       6.71096370     -0.31646285      0.58227681
O       7.86822367     -0.40030507      0.19038673
N       6.24868141     -0.97528278      1.70717924
C       4.94633729     -0.88069997      2.16271824
N       4.00656412     -0.17832634      1.60611875
C       4.42822473      0.47282119      0.49272764
H      -3.52409126     -3.28658439      0.54312685
H      -5.21843987     -2.80547953      0.38715006
H      -4.56184517     -3.22498833      1.98011716
H      -4.75530811     -0.74872133      1.77138527
H      -3.07358142     -1.24690553      1.92801061
H      -5.64805451     -0.49124980     -0.52522792
H      -4.54720414      0.13324543     -1.74157336
H      -5.17288441      1.49649652      0.93315155
H      -4.01928884      2.10621222     -0.25707802
H      -5.74193151      2.00289583     -0.66640540
H      -2.41520776      1.10600818     -1.71523358
H      -2.51159726     -0.45798814     -2.56126085
H      -0.34560380      0.51338792     -3.05197983
H      -0.08724725     -0.87851259     -1.97650790
H       2.14368658      2.65037773     -0.43863374
H       1.97485840      1.41634870      0.86342267
H       6.40946664      1.53965159     -1.88039236
H       6.92477397     -1.54209373      2.19577156
H       4.75638166     -1.46992245      3.07411287
