22
Clc1cc(Cl)c(Cl)c(-c2ccccc2Cl)c1
Cl     -3.64147519     -1.37762305      2.33132242
C      -2.80684275     -0.64044720      1.02065425
C      -3.52614738     -0.09463057     -0.03584386
C      -2.84623972      0.50594033     -1.09808516
Cl     -3.80942912      1.16872855     -2.37428912
C      -1.44166337      0.56085391     -1.10587616
Cl     -0.59979943      1.31774711     -2.42532330
C      -0.70870947      0.00382793     -0.03413524
C       0.76388429      0.01828161      0.01875368
C       1.41918111      1.08740496      0.65699616
C       2.81340163      1.13635619      0.72948166
C       3.57753202      0.11711805      0.16745088
C       2.94887358     -0.95314588     -0.46730214
C       1.55320810     -1.00438603     -0.54137845
Cl      0.84015409     -2.36695804     -1.33565377
C      -1.41436994     -0.59379808      1.02752144
H      -4.61261547     -0.13580334     -0.03383749
H       0.84157284      1.89786274      1.09873840
H       3.30219983      1.97362312      1.22250507
H       4.66284542      0.15625862      0.22145879
H       3.55163828     -1.74533148     -0.90454546
H      -0.86719935     -1.03187941      1.86138739
