30
O=C(OCn1ncc2c(=O)[nH]cnc21)c1ccccc1
O       1.76629251      1.25132076     -2.23915114
C       1.66706400      0.51517279     -1.27035281
O       0.51728142     -0.02185106     -0.80698470
C      -0.61793740      0.33912949     -1.59571472
N      -1.79146343     -0.28142724     -1.00169052
N      -2.10397040     -1.57817667     -1.28233415
C      -3.21547416     -1.79991275     -0.56784699
C      -3.61196519     -0.66656945      0.14784941
C      -4.68763016     -0.34959578      1.03966849
O      -5.56849390     -1.13143076      1.37484889
N      -4.62883237      0.95591732      1.49274508
C      -3.63923406      1.84698439      1.11975758
N      -2.65612105      1.58201948      0.31331740
C      -2.68599089      0.30536786     -0.14670958
C       2.81992960      0.09562105     -0.42859213
C       2.68442826     -0.80721361      0.63534078
C       3.80045151     -1.16922397      1.39380490
C       5.05315549     -0.63426366      1.09474501
C       5.19563994      0.26270473      0.03694143
C       4.08299044      0.62700288     -0.72394616
H      -0.52519905     -0.04390001     -2.61840515
H      -0.76735124      1.42419592     -1.60171985
H      -3.68293179     -2.77580548     -0.60485650
H      -5.36263947      1.23634856      2.12542322
H      -3.75105486      2.84316768      1.57700303
H       1.71832109     -1.24049940      0.88372790
H       3.69200115     -1.87110308      2.21729982
H       5.92033454     -0.91869821      1.68605304
H       6.17290583      0.67792520     -0.19705793
H       4.20549364      1.32679301     -1.54861756
