30
O=C(O)CCCCCc1ccccc1
O       4.81395310     -1.75008720      0.30622902
C       4.44042763     -0.74070951      0.87774287
O       5.22499149     -0.14519407      1.79793549
C       3.14038528     -0.00643668      0.69181915
C       2.24555505     -0.69489900     -0.33686028
C       0.92810511      0.05984408     -0.52231019
C       0.02748750     -0.63952595     -1.54529596
C      -1.26907680      0.12816616     -1.82696213
C      -2.21026746      0.18798353     -0.64906632
C      -2.40385819      1.38822472      0.04786009
C      -3.26986269      1.44031437      1.14147082
C      -3.95086847      0.29469614      1.54833414
C      -3.76716306     -0.90387362      0.86188450
C      -2.90156176     -0.95766192     -0.23173459
H       6.02577692     -0.70971070      1.82644897
H       2.62914214      0.03485428      1.65994222
H       3.36786915      1.01375671      0.36365604
H       2.04042879     -1.72426297     -0.01698166
H       2.77153831     -0.76272288     -1.29740660
H       0.41527500      0.12940290      0.44389002
H       1.13593774      1.08405093     -0.85491967
H      -0.19884869     -1.65631836     -1.20179299
H       0.57566554     -0.74107346     -2.49034545
H      -1.79639120     -0.35226075     -2.66127549
H      -1.02981337      1.14208672     -2.17161242
H      -1.87872897      2.29106339     -0.25512983
H      -3.41295705      2.37566721      1.67596062
H      -4.62509710      0.33609870      2.39950376
H      -4.29848247     -1.79780199      1.17751431
H      -2.76956146     -1.90004504     -0.75849843
