20
CCCCOC(C)=O
C      -3.17292332     -0.49872307     -0.53615392
C      -2.12312185      0.08261116      0.39725257
C      -0.75283225      0.14509109     -0.27182553
C       0.30151806      0.73067051      0.66268361
O       1.56391643      0.82226466     -0.01631906
C       2.34414516     -0.29195935      0.03333751
C       3.62349858     -0.05146511     -0.70815408
O       2.05726038     -1.34118272      0.59144499
H      -2.90874851     -1.51730880     -0.83790451
H      -3.27619814      0.11156828     -1.43905346
H      -4.14624484     -0.53405392     -0.03684520
H      -2.43337842      1.08771950      0.70570871
H      -2.06725959     -0.53224878      1.30307045
H      -0.44636810     -0.85722051     -0.59463917
H      -0.80286819      0.75115812     -1.18505497
H       0.02307697      1.75035149      0.95049076
H       0.39288754      0.15105849      1.58912659
H       4.16750578      0.77824535     -0.24985292
H       3.40868064      0.16165806     -1.75828469
H       4.24745365     -0.94823446     -0.65469346
