30
O=C(O)C(=O)C(c1ccccc1)c1ccccc1
O      -1.90003241      1.64669816      2.53246195
C      -1.63937270      2.32265721      1.55875888
O      -2.13516982      3.54939336      1.29946526
C      -0.67640730      1.89563562      0.45393741
O      -0.49030259      2.71732511     -0.44349460
C      -0.12239311      0.48260424      0.55768715
C       1.33421704      0.31450434      0.11846292
C       1.87258131      0.93362915     -1.02025416
C       3.20650788      0.73025626     -1.38475923
C       4.02210301     -0.10319028     -0.62472888
C       3.50390950     -0.74007483      0.49840117
C       2.17157540     -0.53723796      0.86420090
C      -1.06427718     -0.51476028     -0.10624492
C      -1.30623700     -0.49092185     -1.48918146
C      -2.18628783     -1.40378426     -2.07349282
C      -2.83887303     -2.34842858     -1.28527135
C      -2.61329288     -2.38163377      0.08849207
C      -1.73285883     -1.47120939      0.67553609
H      -1.75359537      3.87717257      0.44989549
H      -0.10572301      0.26850730      1.63597109
H       1.26728702      1.58149400     -1.64982554
H       3.60660288      1.22164384     -2.26823776
H       5.05803193     -0.26169205     -0.91222876
H       4.13471997     -1.40021972      1.08819606
H       1.78900215     -1.05900245      1.73987559
H      -0.81187027      0.23679699     -2.12911235
H      -2.36158162     -1.37793843     -3.14609487
H      -3.52360565     -3.05854989     -1.74149919
H      -3.12485980     -3.11645091      0.70515255
H      -1.57979771     -1.51322353      1.75272803
