46
CCOc1nc(NC)nc(NC(=O)NS(=O)(=O)c2ccccc2C(=O)OC)n1
C       6.19548466     -2.29526769     -2.82786582
C       5.08113352     -1.43401765     -2.26027502
O       4.26181018     -2.26243154     -1.43742457
C       3.23946252     -1.57765024     -0.81500560
N       3.00727269     -0.30777549     -1.13176659
C       2.00300905      0.25446233     -0.47980217
N       1.61606524      1.56315952     -0.73541844
C       1.82074069      2.00344601     -2.09705227
N       1.28053577     -0.36932425      0.43641090
C       1.57130893     -1.64519226      0.64722549
N       0.78108868     -2.38216808      1.51162318
C      -0.29584028     -1.96412049      2.23321550
O      -0.99330376     -2.79589359      2.80139077
N      -0.56342939     -0.60249608      2.28903281
S      -1.85210791      0.11404258      3.02998863
O      -2.06378175     -0.48542054      4.32935989
O      -1.68998545      1.54869576      2.92202552
C      -3.19743455     -0.34886081      1.97368350
C      -4.08072538     -1.34852869      2.40261361
C      -5.18799181     -1.68166902      1.62123408
C      -5.42255809     -1.01488601      0.41917733
C      -4.54591472     -0.01636508     -0.00977491
C      -3.42774613      0.32237103      0.76782964
C      -2.49744601      1.34263326      0.24325574
O      -1.30752772      1.15398074      0.05036602
O      -3.19304357      2.48249953      0.02069708
C      -2.38257412      3.58045342     -0.39886736
N       2.54250127     -2.30747180      0.04651176
H       5.78249575     -3.12434340     -3.41203708
H       6.85581098     -1.70535440     -3.46971910
H       6.78927295     -2.73818408     -2.02140149
H       5.52318725     -0.62197642     -1.67001811
H       4.49497805     -1.01824418     -3.08873342
H       0.64800912      1.63692151     -0.41028873
H       1.41819052      3.01503697     -2.21094177
H       2.88520296      2.04530865     -2.35210266
H       1.30064531      1.35626374     -2.81204140
H       0.98621945     -3.36763826      1.55165271
H      -0.00988506      0.03182098      1.70832492
H      -3.91157787     -1.87339559      3.34233515
H      -5.87076663     -2.46047528      1.95499701
H      -6.28869942     -1.27572152     -0.18521346
H      -4.73516297      0.49128046     -0.95346244
H      -3.02717727      4.45721404     -0.50547231
H      -1.92352365      3.36606944     -1.36907825
H      -1.61622201      3.80208247      0.35081173
