22
CC(C)=CC=C(C)C
C       2.67560772      0.71762591      1.52464269
C       1.78544373     -0.04291177      0.57292947
C       2.49008941     -1.16457741     -0.14199322
C       0.49155591      0.31011579      0.43196222
C      -0.49155494     -0.31011357     -0.43196464
C      -1.78544369      0.04291202     -0.57292979
C      -2.67560638     -0.71762198     -1.52464703
C      -2.49009148      1.16457185      0.14199950
H       3.51783043      1.16074881      0.98301087
H       3.07064751      0.04485782      2.29300973
H       2.14652244      1.52914575      2.03530743
H       3.33035594     -0.76851013     -0.72231310
H       1.85416029     -1.72076507     -0.83284008
H       2.88394889     -1.88248566      0.58544813
H       0.13952973      1.14930472      1.02663574
H      -0.13952730     -1.14929885     -1.02664200
H      -3.51782611     -1.16075263     -0.98301729
H      -2.14651853     -1.52913594     -2.03531899
H      -3.07065095     -0.04484970     -2.29300849
H      -2.88393774      1.88249246     -0.58543705
H      -1.85416715      1.72074578      0.83286207
H      -3.33036774      0.76850181      0.72230383
