21
Nc1cc(S(=O)(=O)O)ccc1C(=O)O
N       1.59092647      1.85043286     -1.10720334
C       0.85538825      0.76329706     -0.60200582
C      -0.51596506      0.71025113     -0.88806147
C      -1.32381985     -0.26739846     -0.30009445
S      -3.05309055     -0.31806557     -0.67334597
O      -3.28800486     -1.48786283     -1.48746405
O      -3.47086150      1.00463596     -1.08493683
O      -3.76646127     -0.54989718      0.75538344
C      -0.79725154     -1.18153162      0.61176031
C       0.55673701     -1.11241909      0.93878430
C       1.38373776     -0.13612161      0.35242018
C       2.82953719     -0.08366905      0.70232375
O       3.69421295      0.52919589      0.10065258
O       3.13006639     -0.80614730      1.79786430
H       2.60525780      1.70601976     -1.05785979
H       1.29589154      2.18280264     -2.01973235
H      -0.95447236      1.44010044     -1.56616412
H      -4.39817025      0.18875818      0.88885529
H      -1.42970041     -1.93944769      1.06976346
H       0.96226313     -1.82438468      1.65486601
H       4.09377916     -0.66854885      1.91419458
