23
CN(CC(=O)O)C(N)=NP(=O)([O-])[O-].[Na+].[Na+]
C      -0.79785420     -1.97209429      1.02231382
N      -0.26103123     -0.62466815      1.06570763
C      -1.27173039      0.45894254      1.07644611
C      -2.05736028      0.54444017     -0.22764001
O      -3.22836583      0.15514310     -0.28715204
O      -1.44653479      1.04039854     -1.31824206
C       0.87635296     -0.28114094      0.36946684
N       1.34536106     -1.22792969     -0.49223223
N       1.27357424      0.94410791      0.39239598
P       2.05628430      1.60046285     -0.86337372
O       2.97321866      0.50386542     -1.39860839
O       2.74877677      2.85090718     -0.36595008
O       0.84019214      1.84751708     -1.75908989
Na      0.00000000      0.00000000      0.00000000
Na      0.00000000      0.00000000      0.00000000
H      -0.02862200     -2.70581509      1.28699531
H      -1.19126083     -2.21649841      0.02962389
H      -1.60972699     -2.08757063      1.74862825
H      -1.99059398      0.26024077      1.88196482
H      -0.85793660      1.44608929      1.31277975
H      -0.46749675      1.35699336     -1.28638152
H       2.25318072     -0.80722672     -0.82280859
H       0.84157303     -1.08616429     -1.36484386
