32
O=C(OCC(=O)N1CCC1C(=O)O)c1ccccc1
O      -0.28673946      0.97046605     -0.87771073
C      -1.26050305      0.48902132     -0.31794562
O      -1.53618953     -0.83777216     -0.23516840
C      -0.53107817     -1.66609776     -0.81962263
C       0.76553400     -1.66891544     -0.00884859
O       0.78916714     -1.61154928      1.22455077
N       1.93743521     -1.77552593     -0.70579116
C       2.24627537     -1.42824071     -2.08456069
C       3.72064171     -1.51734261     -1.67248841
C       3.26454813     -1.35625503     -0.20750584
C       3.92693598     -2.26549919      0.87573650
O       5.07928109     -2.69035509      0.83810921
O       3.12227956     -2.57007562      1.93309033
C      -2.31233341      1.29530021      0.35651621
C      -2.21354181      2.69233056      0.29899775
C      -3.17516146      3.49282772      0.91841426
C      -4.23925757      2.90263331      1.59891693
C      -4.34360000      1.51354083      1.66286130
C      -3.38361832      0.70891705      1.04437779
H      -0.37080811     -1.37840951     -1.86381370
H      -0.91211490     -2.69296665     -0.82328713
H       1.90002265     -0.42917197     -2.36537906
H       1.92285983     -2.17109242     -2.81673272
H       4.36094836     -0.71669756     -2.05550464
H       4.18743599     -2.48304678     -1.90273060
H       3.24226346     -0.30538671      0.11631759
H       2.21943876     -2.17204620      1.85191840
H      -1.38607781      3.16438064     -0.22749639
H      -3.09161545      4.57600886      0.87102798
H      -4.98695528      3.52651614      2.08294048
H      -5.17238723      1.05647968      2.19841149
H      -3.48308569     -0.37117237      1.11239933
