19
CCC(C)(N)C(=O)O
C      -2.05267261     -0.52293625     -0.26667258
C      -0.86758139     -0.45622792      0.68918190
C       0.44419075      0.09832771      0.09452527
C       0.29256641      1.50950254     -0.47821772
N       0.97248007     -0.81436277     -0.97136975
C       1.49045159      0.12642642      1.23963182
O       1.53749081      0.94539623      2.14316732
O       2.36211513     -0.91224185      1.12621604
H      -1.85327796     -1.18009909     -1.11756232
H      -2.32001585      0.46786416     -0.64494253
H      -2.92798329     -0.92137252      0.25732246
H      -1.16068321      0.15814953      1.55118683
H      -0.69048526     -1.46235361      1.09320517
H      -0.33601130      1.52139864     -1.37513953
H      -0.15897103      2.18526796      0.25717617
H       1.26601373      1.93519965     -0.74997239
H       1.68811414     -0.30325757     -1.50172098
H       0.23031396     -0.97125042     -1.65842563
H       2.08394529     -1.40343085      0.31241046
