39
COc1ccc(Oc2ccc(NC(=O)N(C)C)cc2)cc1
C       6.87418680      0.81083568      1.18982595
O       6.55427105      0.57270244     -0.17510338
C       5.31817234      0.04957962     -0.43797934
C       5.05993516     -0.18381654     -1.79222440
C       3.83572624     -0.71529160     -2.20234476
C       2.85482191     -1.00032661     -1.25567911
O       1.68051742     -1.55109385     -1.71543590
C       0.50810231     -1.03290722     -1.21624717
C      -0.45789094     -1.93853709     -0.78462782
C      -1.68315991     -1.47530779     -0.29426225
C      -1.95253834     -0.10540052     -0.24239672
N      -3.16940151      0.43275030      0.22218861
C      -4.14715637     -0.21570459      0.94384505
O      -4.02082833     -1.32919246      1.44658822
N      -5.32172842      0.52998042      1.09893537
C      -5.79923162      1.48626588      0.10807718
C      -6.35214209     -0.04989055      1.94478376
C      -0.98746516      0.79559525     -0.71223412
C       0.23859094      0.33561696     -1.20145140
C       3.11091981     -0.79207723      0.10124954
C       4.33948398     -0.26025357      0.50849143
H       6.19845325      1.55145785      1.63019897
H       7.88796497      1.22093451      1.22881439
H       6.86977723     -0.12099668      1.76495016
H       5.82193195      0.04603262     -2.53291360
H       3.64877492     -0.90117186     -3.25602736
H      -0.26120801     -3.00646735     -0.82372290
H      -2.41464957     -2.20961816      0.03037285
H      -3.22808824      1.43824532      0.24793832
H      -6.32167070      2.29795513      0.62263278
H      -5.00015941      1.91184176     -0.50032903
H      -6.49500577      0.97095077     -0.56180239
H      -5.90919253     -0.59204614      2.78561500
H      -6.95243410     -0.74385180      1.34855048
H      -6.98866140      0.74690437      2.34042859
H      -1.17472679      1.86589579     -0.70568887
H       0.97109432      1.04697768     -1.57241725
H       2.36466754     -1.04703977      0.84909831
H       4.49994710     -0.10734928      1.57030280
