41
CCN(CCC#N)c1ccc(N=Nc2c(Br)cc([N+](=O)[O-])cc2Br)cc1
C      -4.45484913     -1.00160080     -2.42795307
C      -4.31425661     -1.63220521     -1.04844257
N      -3.68634221     -0.71150287     -0.07923789
C      -4.54108545      0.38794765      0.40825543
C      -4.26530096      0.69978938      1.88083159
C      -5.17358193      1.74988807      2.35094185
N      -5.89780879      2.58337497      2.70788638
C      -2.30809345     -0.52035154     -0.22788175
C      -1.72000769      0.74129759     -0.40021093
C      -0.33300968      0.89125273     -0.53738877
C       0.51104624     -0.21808080     -0.49078429
N       1.89858369     -0.06939446     -0.65141613
N       2.43879658      0.10189235      0.46509674
C       3.83127663      0.25554359      0.30325531
C       4.40550034      1.53134391      0.13963564
Br      3.33424915      3.10420657      0.12090406
C       5.78780207      1.69454141     -0.00730169
C       6.61750619      0.56900541      0.02151488
N       8.06890772      0.73169324     -0.13172668
O       8.50486016      1.88068599     -0.28336336
O       8.76752063     -0.29024703     -0.09998115
C       6.07918762     -0.70930609      0.20211365
C       4.69486017     -0.85641840      0.34715550
Br      4.02823209     -2.61815492      0.61725487
C      -0.05423974     -1.48105798     -0.32399593
C      -1.44061642     -1.62524393     -0.18981214
H      -3.47838515     -0.75422746     -2.85648762
H      -5.04754439     -0.08218283     -2.38773832
H      -4.95531048     -1.69652595     -3.10961595
H      -5.30910652     -1.91303105     -0.68100107
H      -3.76133274     -2.57445480     -1.13036790
H      -4.44443974      1.27983915     -0.22300760
H      -5.59456035      0.08766302      0.32105731
H      -4.40018673     -0.20606988      2.48346598
H      -3.22974169      1.02425264      2.02765536
H      -2.32376741      1.64112739     -0.45948279
H       0.08939832      1.88216222     -0.68198779
H       6.20447479      2.69182114     -0.13848743
H       6.72321111     -1.58672249      0.23388544
H       0.58510827     -2.35873750     -0.28666426
H      -1.83695451     -2.62381239     -0.02258636
