46
CCCCCCCCCCCCN(C)C
C       6.39968420     -1.33089773      0.47777631
C       6.34679042      0.18467674      0.36676393
C       5.40034001      0.83984547      1.37553186
C       3.93356161      0.40657130      1.29059831
C       3.28598073      0.71139041     -0.06172246
C       1.79441140      0.36515762     -0.05250110
C       1.14692777      0.66942147     -1.40534476
C      -0.32122852      0.23871987     -1.48704951
C      -1.23342041      1.01663399     -0.53493968
C      -2.72490874      0.75637402     -0.77432838
C      -3.14534477     -0.68487444     -0.46804870
C      -4.64947929     -0.92885135     -0.67327738
N      -5.52906837     -0.07323291      0.14014757
C      -6.92113777     -0.23486173     -0.28726920
C      -5.41362066     -0.36747927      1.56962177
H       7.16538733     -1.73014126     -0.19514067
H       5.44495039     -1.78676467      0.19956884
H       6.64916986     -1.64199233      1.49708309
H       7.35553935      0.58124413      0.53477134
H       6.07172589      0.46783044     -0.65504460
H       5.45705025      1.92810489      1.24804158
H       5.76385031      0.63017817      2.38936933
H       3.37997500      0.93208930      2.07904922
H       3.84369021     -0.66278523      1.51370673
H       3.78151294      0.13730393     -0.85260238
H       3.41439066      1.77407473     -0.30014539
H       1.66631835     -0.69753046      0.18617559
H       1.29832845      0.93898269      0.73820984
H       1.70069337      0.14502086     -2.19406689
H       1.22857500      1.74140503     -1.62255741
H      -0.38988804     -0.83581622     -1.28337199
H      -0.66470655      0.39026064     -2.51773083
H      -1.05042805      2.09086070     -0.66115513
H      -0.99055040      0.77268254      0.50550381
H      -2.97936971      1.00337816     -1.81215689
H      -3.29011495      1.44713989     -0.13752541
H      -2.84894038     -0.95282698      0.55232034
H      -2.60835343     -1.37137748     -1.13307210
H      -4.86607505     -1.98903245     -0.48653878
H      -4.86127432     -0.75017705     -1.73595535
H      -7.57892673      0.43330564      0.27994087
H      -7.03543874      0.03933643     -1.34200990
H      -7.27705960     -1.26330155     -0.15653951
H      -6.09936367      0.26249264      2.14800614
H      -4.41033315     -0.13905311      1.94228711
H      -5.63982220     -1.41575337      1.79562079
