35
CN(CCCCC(=O)O)S(=O)(=O)c1ccccc1
C       0.44083372     -1.93822727      0.92845656
N       0.37621912     -1.22157714     -0.36069631
C      -0.43590170      0.01894295     -0.31265285
C      -1.90407653     -0.32331477     -0.57156235
C      -2.77163252      0.93882961     -0.59907161
C      -4.25154152      0.62459637     -0.81912197
C      -4.90748889      0.03054536      0.39960436
O      -4.43383974     -0.07838728      1.51752960
O      -6.16293876     -0.38442882      0.14183542
S       1.81731585     -1.17134003     -1.27017847
O       1.53665763     -0.50635852     -2.52591066
O       2.41653684     -2.48946364     -1.24527830
C       2.86148844     -0.09177862     -0.31103519
C       3.70744380     -0.63437045      0.66173821
C       4.54090788      0.20954666      1.39564143
C       4.53851955      1.58310520      1.14649014
C       3.71108242      2.11759231      0.15727157
C       2.87466025      1.28026155     -0.58094678
H       0.96167643     -2.89382779      0.82348463
H      -0.56889006     -2.17012614      1.28023961
H       0.94002382     -1.33343903      1.69051420
H      -0.31719619      0.51095196      0.65980402
H      -0.10723582      0.73391255     -1.07343617
H      -1.99405145     -0.85094287     -1.52955484
H      -2.26646654     -1.01216055      0.19912839
H      -2.42802264      1.58620822     -1.41524971
H      -2.63928937      1.50182296      0.33285778
H      -4.78189177      1.55457733     -1.05283576
H      -4.36846781     -0.06696517     -1.66051757
H      -6.48151427     -0.73866756      0.99838074
H       3.72684283     -1.70601719      0.84714902
H       5.20061082     -0.20329020      2.15523222
H       5.19418963      2.23786548      1.71608611
H       3.72724163      3.18601444     -0.04479679
H       2.24819493      1.69991008     -1.36465566
