30
O=C(Oc1cc([N+](=O)[O-])c(Cl)cc1Cl)Oc1cc([N+](=O)[O-])c(Cl)cc1Cl
O       0.02574089      0.03665530      0.61453834
C      -0.02679675     -0.05516715     -0.60575529
O       1.02020454      0.16719151     -1.48773310
C       2.17715603      0.59247576     -0.83077659
C       3.14504095     -0.36303691     -0.52537092
C       4.31451743      0.06240326      0.11532089
N       5.30273463     -0.93934908      0.43878210
O       5.87352869     -1.48286204     -0.51510986
O       5.46440385     -1.20782823      1.63477936
C       4.53872055      1.40591339      0.42710242
Cl      5.98792732      1.97662232      1.16878920
C       3.56164563      2.35100137      0.09403465
C       2.38261733      1.94726006     -0.53851245
Cl      1.21175501      3.14027192     -0.95960462
O      -1.14331797     -0.40170024     -1.35228956
C      -2.23938007     -0.71346269     -0.54438244
C      -3.19534037      0.27824698     -0.33057081
C      -4.30825936     -0.03653677      0.45738226
N      -5.29388543      0.99692195      0.66698452
O      -4.95314012      1.95637460      1.36936681
O      -6.37787300      0.86548350      0.08639741
C      -4.47996927     -1.30314192      1.02156965
Cl     -5.81689560     -1.71580748      2.03047765
C      -3.51814559     -2.28975591      0.77687110
C      -2.40189923     -1.99975130     -0.01260821
Cl     -1.25054961     -3.24605604     -0.31757321
H       2.98876534     -1.41006966     -0.77373552
H       3.72169233      3.40348203      0.32027737
H      -3.07348092      1.26890895     -0.76190256
H      -3.63751727     -3.28468749      1.20153766
