14
N.N.O=C(O)O
N       0.00980800     -0.01003655      0.29526198
N      -0.00108766      0.00849255      0.29547129
O      -0.39407086      1.25595033      0.69715700
C       0.05812581      0.33270651      0.05602935
O       1.33480646      0.01733108     -0.14220427
O      -0.69082800     -0.56447350     -0.58899672
H       0.91220149     -0.20529670     -0.13592295
H      -0.64259331     -0.68533808     -0.10059324
H      -0.27941619      0.90067133     -0.05874579
H      -0.55799236     -0.75839562     -0.07882898
H      -0.37501284      0.85823551     -0.12462129
H       0.93409286     -0.10833244     -0.09202102
H       1.29482890     -0.78032430     -0.70409165
H      -1.60286231     -0.26119011     -0.39252051
