21
Cc1cc(S(=O)(=O)O)c(N)cc1Cl
C      -2.54419515      0.94695307      1.68880569
C      -1.49218179      0.29463084      0.83596684
C      -0.18794291      0.80885134      0.83315797
C       0.80355108      0.21543719      0.03888149
S       2.41019018      0.96563655     -0.04508510
O       2.39508680      2.18710744      0.72885608
O       3.37305750     -0.08905181      0.20094568
O       2.53570600      1.36318952     -1.60833916
C       0.54112775     -0.92558318     -0.73322539
N       1.50140038     -1.49511970     -1.59829263
C      -0.77884251     -1.38707475     -0.78019889
C      -1.77906109     -0.80019416      0.00766668
Cl     -3.37130067     -1.46486500     -0.08803047
H      -2.99171992      0.21685251      2.37080675
H      -3.32364092      1.38885013      1.05994047
H      -2.12100586      1.74826124      2.30410460
H       0.05040365      1.68621268      1.43385421
H       2.36962844      0.55791384     -2.14952504
H       1.22771353     -2.42062344     -1.93173681
H       2.42126024     -1.57372608     -1.14356354
H      -1.03923475     -2.22365823     -1.42498941
