14
CCC(C)Br
C      -1.92886588     -0.26362564     -0.10098447
C      -0.60766336      0.43729329      0.19214731
C       0.61712048     -0.42046023     -0.12882229
C       1.90116873      0.39604935     -0.08722598
Br      0.78622754     -1.87319053      1.17787960
H      -1.97463745     -0.59265711     -1.14406257
H      -2.76318565      0.42396668      0.07195810
H      -2.07968465     -1.13482709      0.54271825
H      -0.59515616      0.75940528      1.24065600
H      -0.57492382      1.34902959     -0.41748042
H       0.51504096     -0.90638077     -1.10459685
H       2.77501706     -0.22766996     -0.30592330
H       1.87242317      1.19842912     -0.83205534
H       2.05711903      0.85463803      0.89579197
