29
O=[N+]([O-])c1ccc(Nc2ccc(O)cc2)c([N+](=O)[O-])c1
O       4.90172326     -0.48484445     -2.60003300
N       4.82760136     -0.38405025     -1.36806351
O       5.79967340     -0.28951977     -0.60692357
C       3.48916513     -0.37949195     -0.76320275
C       2.36461582     -0.59170707     -1.56614788
C       1.08852890     -0.59017251     -0.98878912
C       0.89829601     -0.38484883      0.38923691
N      -0.40056354     -0.33989044      0.93419494
C      -1.63965626      0.05889388      0.40030111
C      -2.81434238     -0.45755554      0.97050907
C      -4.07386605     -0.13175530      0.45727589
C      -4.16296801      0.71410641     -0.64027100
O      -5.36609951      1.06159893     -1.17684511
C      -3.01749796      1.23439904     -1.22599344
C      -1.76126082      0.90389946     -0.70894003
C       2.05689237     -0.17496936      1.17219416
N       1.94830989      0.05307634      2.61470933
O       2.80443177      0.77466963      3.14387854
O       1.01717610     -0.50197849      3.21841444
C       3.34748616     -0.17021733      0.61123379
H       2.45703828     -0.76483030     -2.63757735
H       0.23278046     -0.78535217     -1.63426991
H      -0.44753509     -0.56907074      1.93072170
H      -2.75580792     -1.13178259      1.82216669
H      -4.96105353     -0.54875524      0.92274937
H      -6.07135990      0.63671234     -0.66162937
H      -3.09885273      1.90075587     -2.08009393
H      -0.88406502      1.34794434     -1.16965636
H       4.22120980     -0.00526390      1.24085039
