12
O=C(O)C(O)C(Cl)(Cl)Cl
O       1.77657932      1.03807654     -0.94793656
C       1.07762448      0.07831931     -0.67560768
O       1.64255084     -1.10916681     -0.35298816
C      -0.44261469      0.02651687     -0.64593458
O      -0.88337153     -1.34059534     -0.80703895
C      -0.98635366      0.69382907      0.63240545
Cl     -0.54342408      2.43008050      0.74635311
Cl     -0.41360687     -0.14415495      2.11815355
Cl     -2.79245813      0.61971204      0.64069586
H       2.61008908     -0.95114732     -0.42942647
H      -0.79806397      0.55451978     -1.53865670
H      -0.24695078     -1.89598969     -0.31035624
