36
Cc1ccc(Cl)cc1NC(=O)c1cc2ccccc2cc1O
C      -2.64063780      2.17236444      1.02687397
C      -3.33659535      0.83956497      0.93589645
C      -4.71647001      0.79415785      1.20617427
C      -5.41647250     -0.40821729      1.14014727
C      -4.74198872     -1.57411334      0.80037347
Cl     -5.60969809     -3.05878419      0.70848449
C      -3.37337055     -1.55104493      0.52882667
C      -2.65323395     -0.35188659      0.59790860
N      -1.26543890     -0.28477211      0.31988104
C      -0.39618167     -1.33847159      0.10260276
O      -0.64536181     -2.53463287      0.22021292
C       1.00577754     -0.96279826     -0.23851286
C       1.29343713      0.21213508     -0.94997315
C       2.62167731      0.56782363     -1.24445176
C       2.92437298      1.74492682     -1.94838212
C       4.24787646      2.08774428     -2.23012963
C       5.28532390      1.25868556     -1.81445604
C       5.00235864      0.08288710     -1.11833845
C       3.67720313     -0.27684306     -0.82719989
C       3.37953550     -1.46310725     -0.14096047
C       2.05812084     -1.80717869      0.13641333
O       1.86574676     -2.99841378      0.78560932
H      -2.20539988      2.44035982      0.05870918
H      -1.85486965      2.13933851      1.78847450
H      -3.33368141      2.97306947      1.30665744
H      -5.25768686      1.70031700      1.47206075
H      -6.48212558     -0.42796708      1.35153817
H      -2.89490637     -2.48538901      0.25522735
H      -0.84931844      0.63348726      0.38059377
H       0.48826696      0.84856547     -1.30815387
H       2.13088264      2.40811422     -2.28585533
H       4.46866785      3.00168471     -2.77586449
H       6.31638971      1.52384983     -2.03449602
H       5.82680897     -0.55518154     -0.80634187
H       4.17427317     -2.13530713      0.17491130
H       0.90671806     -3.21496730      0.74024156
