10
OCCS
O      -1.65657420      0.19979150     -0.53006065
C      -0.72205153     -0.36646974      0.38338116
C       0.66609592     -0.47194375     -0.24018514
S       1.34297564      1.18360106     -0.59460759
H      -1.24442313      1.00743166     -0.89050044
H      -0.71396602      0.23689947      1.29748445
H      -1.08567660     -1.36456767      0.64709055
H       0.61595014     -1.01717060     -1.18758102
H       1.35077913     -0.99423376      0.43403075
H       1.44689066      1.58666184      0.68094794
