20
CC(=O)OCCOC(C)=O
C       3.28225534      0.96196342     -0.21365383
C       2.41211204     -0.24126956     -0.01821921
O       2.70021895     -1.19747322      0.68711099
O       1.26224033     -0.10637528     -0.73215383
C       0.33848922     -1.20771405     -0.63281013
C      -0.47590323     -1.12844339      0.65885492
O      -1.26396659      0.07704878      0.70217594
C      -2.42375031      0.04343091     -0.00766685
C      -3.14635944      1.34836606      0.12684764
O      -2.82391428     -0.90542544     -0.66672798
H       3.53565572      1.06858782     -1.27138962
H       4.20815331      0.83571871      0.35476922
H       2.76767694      1.85435072      0.15127272
H       0.87450062     -2.16133792     -0.70316850
H      -0.31363825     -1.13631676     -1.50852188
H      -1.11975225     -2.00816966      0.77373586
H       0.18258641     -1.09166663      1.53194028
H      -3.38250075      1.53500066      1.17746185
H      -2.53181179      2.15560520     -0.27937140
H      -4.08229200      1.30411964     -0.43742459
