54
CCCCCCOC(=O)c1ccccc1C(=O)OCCCCCC
C      -3.86756521      2.76978844      2.60011783
C      -2.63972357      2.43920374      1.76697126
C      -3.03113889      1.93306462      0.37894829
C      -1.80065627      1.55458405     -0.44301164
C      -2.13522889      1.15230078     -1.88238643
C      -2.99896198     -0.10399249     -2.00609844
O      -2.44484174     -1.19305437     -1.25559102
C      -1.46316142     -1.89252350     -1.87476076
O      -1.03101007     -1.70894031     -2.99839820
C      -0.96324744     -2.92969082     -0.94924702
C      -1.88037343     -3.69320163     -0.20991094
C      -1.43320492     -4.73231830      0.60989060
C      -0.07226309     -5.02182113      0.69111165
C       0.84555682     -4.26805188     -0.04077437
C       0.40380924     -3.21215851     -0.85268077
C       1.43635826     -2.43497958     -1.56126324
O       2.35616442     -2.94497394     -2.17790998
O       1.25526169     -1.11753196     -1.29780665
C       2.20895658     -0.25948541     -1.93439938
C       2.10548296      1.14230322     -1.33962691
C       2.31600689      1.21208016      0.17755195
C       3.71328969      0.76132031      0.61000269
C       3.95869169      0.90189605      2.11372273
C       3.99577574      2.34371705      2.59259877
H      -4.47257318      1.87379190      2.77083044
H      -4.49313087      3.51672123      2.09817413
H      -3.57424332      3.17023935      3.57466056
H      -2.04292172      1.68232784      2.28921415
H      -2.01866689      3.33600895      1.67207727
H      -3.59695913      2.71283717     -0.14610666
H      -3.69234618      1.06735321      0.48688860
H      -1.26003738      0.74204409      0.05485612
H      -1.11457070      2.40738213     -0.47764195
H      -1.18704408      0.97948877     -2.40706716
H      -2.63211244      1.98390801     -2.39471342
H      -3.13216255     -0.38583876     -3.05882494
H      -4.00308852      0.08203620     -1.60749614
H      -2.94744321     -3.49499744     -0.28145192
H      -2.14948769     -5.32428135      1.17553899
H       0.27393684     -5.83807602      1.32181267
H       1.90743238     -4.49687540      0.02603641
H       1.97557972     -0.21359649     -3.00356326
H       3.22615054     -0.64697632     -1.81604545
H       1.10728223      1.53808901     -1.55218010
H       2.82345759      1.80080897     -1.84114316
H       2.14907707      2.25155675      0.48630979
H       1.55593397      0.60739730      0.69037529
H       3.85214631     -0.29463426      0.34921200
H       4.47513326      1.32741566      0.05977553
H       3.19285020      0.35005785      2.67142571
H       4.92214797      0.43504987      2.35085998
H       4.71160317      2.93521675      2.01344155
H       3.01190917      2.81530112      2.51661170
H       4.29817035      2.38270934      3.64425082
