34
C[C@@H]1O[C@@H]1P(=O)(O)O.NC(CO)(CO)CO
C       1.57845126     -0.18618568      0.95084176
C       1.31949637      0.82024582     -0.11156789
O       0.41900562      1.86608264      0.26607252
C      -0.01458550      0.98654266     -0.79015593
P      -1.35870047     -0.15004775     -0.53266507
O      -2.49848733      0.24864943     -1.40329384
O      -1.71878508     -0.22258328      1.01880273
O      -0.80984946     -1.61812965     -0.84192405
N      -0.55361721     -0.70904410      1.27220414
C      -0.06067099     -0.10089030     -0.00522470
C       1.42991670     -0.47014606     -0.19072005
O       2.21863473      0.08707325      0.86526993
C      -0.22965823      1.43630234      0.04816397
O      -1.59290931      1.77665706      0.31662651
C      -0.90144126     -0.69921827     -1.15488556
O      -0.85395467     -2.12745438     -1.09670826
H       2.48211845      0.08432848      1.50644001
H       0.76033166     -0.26067524      1.67195421
H       1.73990348     -1.17262870      0.50609215
H       2.21046209      1.08296033     -0.66655401
H       0.01167761      1.38949215     -1.79485128
H      -2.59838467     -0.59955014      1.19509355
H      -1.52265402     -2.26850107     -0.97428486
H       0.10989355     -0.42800991      2.00061327
H      -1.42048368     -0.21171748      1.50605171
H       1.81312593     -0.07831441     -1.13917632
H       1.57453932     -1.55650572     -0.18306829
H       3.09821210     -0.32536013      0.79900851
H       0.05566512      1.89235351     -0.90603152
H       0.38119992      1.87888547      0.84235053
H      -1.63117271      2.74688091      0.38695123
H      -1.95408836     -0.40370261     -1.08795455
H      -0.52200740     -0.38537217     -2.13280487
H      -0.96118355     -2.32241700     -0.14066570
