29
C=C(C)C(=O)OCCOC(=O)CC(C)=O
C      -3.02576357      2.23597090      0.94369187
C      -3.06388023      1.11050409      0.21039798
C      -4.21253157      0.76901736     -0.68638560
C      -1.90555855      0.17657020      0.30622481
O      -0.91330572      0.37838849      0.98996946
O      -2.12174674     -0.91084354     -0.47646987
C      -1.07631524     -1.90217150     -0.48533066
C      -0.07893557     -1.61166431     -1.60720730
O       0.69140986     -0.42624520     -1.34204302
C       1.71299929     -0.58008755     -0.44968539
O       2.03916153     -1.64621126      0.05195432
C       2.37004133      0.74367595     -0.20366296
C       3.61538228      0.68171072      0.64023698
C       4.70665955     -0.27649008      0.23591831
O       3.77136089      1.43821758      1.60153788
H      -2.18355144      2.46818881      1.59140748
H      -3.83616799      2.95723415      0.91930092
H      -3.87574172      0.66571468     -1.72327999
H      -4.98647553      1.54411919     -0.66919572
H      -4.68142337     -0.16955214     -0.37300330
H      -1.56446040     -2.86338663     -0.67648671
H      -0.59608229     -1.97006039      0.49671496
H      -0.61720788     -1.42433390     -2.54240878
H       0.58748324     -2.46550412     -1.77562336
H       2.64763921      1.19212128     -1.16340744
H       1.64730458      1.39490400      0.29898651
H       4.76300794     -0.34269861     -0.85371810
H       5.66805367      0.09524411      0.60247552
H       4.51864443     -1.26233227      0.66566987
