25
N.N.O=C1O[Pt]OC(=O)C12CCC2
N       0.02052567     -0.01660529      0.26964725
N       0.00893060     -0.00063208      0.28084409
O      -1.19523871     -2.23084597     -0.14926019
C      -1.36920781     -1.00384070     -0.25467430
O      -2.54812993     -0.52875952     -0.77461676
Pt     -2.57245691      1.21270187     -1.49284958
O      -1.87740020      1.81155695     -0.09700410
C      -0.85852679      1.22660847      0.64254705
O      -0.45309849      1.83568336      1.67356941
C      -0.32271779     -0.06187854      0.17305158
C       0.76509042     -0.66743924      1.01353988
C       1.81114625     -0.16840255      0.06028324
C       0.73777044      0.17352920     -0.91197098
H      -0.37612165      0.89101354     -0.08411817
H      -0.62664987     -0.76084665     -0.09014328
H       0.98224585     -0.11356160     -0.09538581
H      -0.56060185     -0.80543161     -0.09247237
H      -0.42029555      0.87984662     -0.09247540
H       0.97196680     -0.07378294     -0.09589632
H       0.70436023     -1.77264670      1.01017674
H       0.90337235     -0.23278733      2.01698522
H       2.38389084      0.72145103      0.38359873
H       2.53262412     -0.96237687     -0.25986612
H       0.75444858      1.19515642     -1.28315765
H       0.60407340     -0.54770988     -1.75035217
