68
CC1CC2C(C(O)CC3(C)C2CCC3(O)C(=O)COC(=O)CCC(=O)O)C2(C)C=CC(=O)C=C12
C      -4.67546199     -2.22185982     -0.25427975
C      -3.83424976     -0.94100628     -0.35584542
C      -2.40353995     -1.31404754     -0.76235613
C      -1.53145744     -0.07100233     -0.98721111
C      -1.48627485      0.82963629      0.29601956
C      -0.48022324      2.01469642      0.11312752
O      -0.21373989      2.65790818      1.35966447
C       0.89437678      1.60298200     -0.46116018
C       0.78047317      0.75028864     -1.72806103
C       0.20809321      1.64538433     -2.86641004
C      -0.10587918     -0.46198169     -1.39213942
C       0.08368113     -1.38937583     -2.59130736
C       1.53081771     -1.14466989     -3.06143367
C       2.07562225      0.03346818     -2.22505905
O       2.82836939      0.88738611     -3.09646326
C       3.07463893     -0.35675421     -1.10421250
O       3.87037538      0.49948277     -0.68229932
C       3.08264989     -1.79067722     -0.56192885
O       3.78070395     -1.91396734      0.67835693
C       3.13935344     -1.38709679      1.75363383
O       1.97453642     -1.01047507      1.73788099
C       4.02189623     -1.36772479      2.98561526
C       5.52247150     -1.30058603      2.69987068
C       5.88027262     -0.30773310      1.62591531
O       6.70094228     -0.49495564      0.74518323
O       5.15759284      0.82466750      1.69778813
C      -2.94882517      1.23707254      0.75812905
C      -3.63736306      2.18723062     -0.25237103
C      -2.93090880      2.00732057      2.07619521
C      -3.55107856      1.64801045      3.20589983
C      -4.35144237      0.41712912      3.26196269
O      -4.94985484      0.08860149      4.28018093
C      -4.41447068     -0.40241106      2.03496711
C      -3.78795642     -0.06100893      0.88983722
H      -4.29815402     -2.89444196      0.52510603
H      -5.72519040     -1.99049966     -0.03796259
H      -4.65153312     -2.77315082     -1.20311753
H      -4.28491676     -0.35177970     -1.16430537
H      -1.94854875     -1.95754317      0.00076268
H      -2.44153811     -1.90344492     -1.68607916
H      -1.98466559      0.48911081     -1.81093221
H      -1.07573485      0.20994160      1.11056091
H      -0.92155198      2.77487233     -0.53779751
H       0.30700764      2.04608851      1.91063586
H       1.43553265      1.06161639      0.32135005
H       1.49771197      2.50075542     -0.65022229
H      -0.77219662      2.06663989     -2.63186235
H       0.09953062      1.10108785     -3.80807848
H       0.87103320      2.49642065     -3.05918232
H       0.31898076     -0.98123517     -0.52396484
H      -0.07018703     -2.43955271     -2.31850936
H      -0.62012538     -1.15287826     -3.39760523
H       1.52987396     -0.90649406     -4.13323525
H       2.12750009     -2.05636367     -2.96164796
H       3.30726824      1.51968376     -2.52392180
H       3.61870896     -2.41332266     -1.28530955
H       2.07275733     -2.19088374     -0.45226467
H       3.73495376     -0.48575010      3.57273876
H       3.79745025     -2.25758416      3.58295891
H       5.85979823     -2.28511430      2.35136848
H       6.08007528     -1.05670144      3.60876073
H       5.22437953      1.20491868      0.79056697
H      -3.15993175      3.17379106     -0.27176042
H      -4.69030174      2.34899084      0.01345862
H      -3.62452265      1.80831039     -1.27754876
H      -2.39837296      2.95721667      2.09130128
H      -3.51483010      2.24771779      4.10656812
H      -5.00440159     -1.30435374      2.14917310
