27
Nc1cnn(CCO)c1N.O=S(=O)(O)O
N      -3.14860703     -0.11704177     -0.21764476
C      -1.93603268      0.39650276      0.07460840
C      -1.58291645      1.73284129      0.33652598
N      -0.27930952      1.87166934      0.60500388
N       0.19291320      0.60326876      0.52348640
C       1.59123639      0.34652406      0.82068332
C       2.40646459      0.09250282     -0.44071319
O       2.24724724     -1.25795904     -0.88883357
C      -0.76750229     -0.31784444      0.17070736
N      -0.50245727     -1.63429129     -0.03331403
O       0.61334740      0.89510322     -1.31256923
S       0.02837232      0.44838701     -0.07408608
O      -0.47213439      1.33660805      0.94382752
O      -1.16498237     -0.56768926     -0.41604007
O       1.09471234     -0.54287015      0.59953625
H      -3.28433391     -1.11088155     -0.05393673
H      -3.98071919      0.41980725      0.00732036
H      -2.21541741      2.60947178      0.34516755
H       1.62615393     -0.50707503      1.50628029
H       1.97594367      1.22821793      1.34558564
H       3.47000990      0.23350907     -0.22315464
H       2.12052041      0.76730130     -1.25442875
H       2.77270523     -1.34056772     -1.70570624
H       0.45918156     -1.87635768     -0.30163742
H      -1.16508038     -2.13959786     -0.61599985
H      -1.72431522     -0.63656261      0.38531392
H       1.62499992     -0.93297626     -0.12598230
