12
C/C=C/C(=O)O
C      -2.08403588     -0.15961180      0.00279880
C      -0.65863231     -0.15524125     -0.44078661
C       0.37491465      0.11666280      0.37016578
C       1.75114906      0.10024268     -0.14510899
O       2.11681149     -0.14067259     -1.27897159
O       2.61405934      0.39998668      0.83846730
H      -2.18750644      0.08441940      1.06483658
H      -2.52358890     -1.14756277     -0.16489195
H      -2.65598634      0.57405364     -0.57337745
H      -0.47751390     -0.39001036     -1.48893490
H       0.24223583      0.35515902      1.41831972
H       3.48809340      0.36257457      0.39748332
