24
CC(=O)O[C@@H](C(=O)O)c1ccccc1
C      -3.54405255     -0.55469885      1.45723010
C      -2.76111589      0.01321119      0.31414481
O      -3.25463613      0.56258467     -0.66030214
O      -1.43173920     -0.18379525      0.51380148
C      -0.59553477      0.38950797     -0.50302695
C      -0.56687797      1.92183522     -0.41790736
O      -0.97226126      2.61230060      0.50674423
O      -0.01844491      2.50817054     -1.50626167
C       0.79867878     -0.19052177     -0.32960033
C       1.43243209     -0.18810439      0.92423169
C       2.71899017     -0.70872005      1.07104076
C       3.38910455     -1.23381164     -0.03174606
C       2.77500418     -1.23777502     -1.28253667
C       1.48799082     -0.71794361     -1.43262016
H      -4.60891766     -0.36230468      1.29810054
H      -3.38780383     -1.63481577      1.51287720
H      -3.24039235     -0.07282777      2.39002611
H      -0.99090177      0.10229748     -1.48641506
H      -0.07220935      3.46668593     -1.30829819
H       0.92353519      0.21947385      1.79632507
H       3.19832176     -0.70378676      2.04665066
H       4.39122913     -1.63859138      0.08326748
H       3.30001252     -1.64427745     -2.14328858
H       1.02958845     -0.72409306     -2.41961072
