26
CC1(c2ccccc2)C(=O)NC(=O)NC1=O
C      -0.58910571     -1.30210443     -1.83904057
C      -0.71065217     -0.32382234     -0.65734407
C       0.68433889     -0.19697925     -0.00401416
C       1.61395170      0.76053775     -0.45302507
C       2.88076891      0.86321982      0.12744737
C       3.25154364      0.00156871      1.15463851
C       2.36094681     -0.97260589      1.59379616
C       1.09338456     -1.07791869      1.01542520
C      -1.74882255     -0.85563493      0.33650936
O      -2.08702970     -2.03463703      0.42334791
N      -2.28568287      0.07506531      1.18619002
C      -2.50432354      1.36619322      0.82265493
O      -3.38565669      2.03697321      1.35002097
N      -1.78482355      1.84392292     -0.22666241
C      -1.21499970      1.02964283     -1.16933299
O      -1.11018194      1.41525541     -2.33221189
H      -1.55467508     -1.43112637     -2.34286805
H      -0.25502966     -2.29439389     -1.51285622
H       0.12672390     -0.94617033     -2.58973375
H       1.37790955      1.43686624     -1.27346974
H       3.58242524      1.61228772     -0.23181393
H       4.23892887      0.07944078      1.60216124
H       2.65564361     -1.66077216      2.38251278
H       0.44045796     -1.87387736      1.37095626
H      -2.96612165     -0.28736885      1.84096973
H      -2.10991882      2.73643760     -0.57425759
