43
[2H]C([2H])([2H])C([2H])([2H])C([2H])([2H])N(CCC)CCc1cccc2c1CC(=O)N2
H      -2.53419088     -0.91115670      2.52912041
C      -2.70645923     -1.95870324      2.26439820
H      -2.51128542     -2.56477316      3.15490477
H      -3.76165547     -2.07835995      1.99863493
C      -1.80379522     -2.40263531      1.12215008
H      -1.95940317     -3.47559323      0.95412229
H      -0.75474006     -2.29121887      1.41533457
C      -2.08659293     -1.66514538     -0.19444777
H      -3.11222861     -1.92882980     -0.48593445
H      -1.43532611     -2.07227465     -0.97763482
N      -1.97489176     -0.19631397     -0.13421268
C      -2.49114916      0.39703186     -1.38157502
C      -2.58100639      1.92838054     -1.35623795
C      -3.27823134      2.46114059     -2.60025162
C      -0.63497623      0.28424305      0.25379806
C       0.51653893     -0.01366557     -0.72324941
C       1.82687768      0.54133506     -0.22462011
C       2.21243765      1.85696560     -0.53734161
C       3.42420831      2.39742461     -0.06613409
C       4.28023280      1.63972501      0.73345024
C       3.88558929      0.35521852      1.03635900
C       2.68817503     -0.19593974      0.57755291
C       2.56965074     -1.60118364      1.09654011
C       3.86328743     -1.76526807      1.90004764
O       4.22007490     -2.75886203      2.51125437
N       4.56591076     -0.57158572      1.80933822
H      -1.89478830      0.07544633     -2.24449317
H      -3.50762875      0.01677741     -1.54878037
H      -1.58185531      2.37489221     -1.30860586
H      -3.13369050      2.25716587     -0.46827514
H      -4.30172316      2.07931474     -2.67090192
H      -3.32571747      3.55424061     -2.56876546
H      -2.73835062      2.16993279     -3.50704866
H      -0.38239084     -0.11741620      1.24267853
H      -0.68617253      1.36509291      0.43590886
H       0.62241232     -1.09248822     -0.88336896
H       0.30977720      0.41782078     -1.70972207
H       1.56779041      2.48037764     -1.15539092
H       3.69279445      3.41826244     -0.32875904
H       5.21308744      2.05271934      1.09836973
H       1.71099516     -1.70796874      1.76377977
H       2.55148905     -2.32791659      0.28066590
H       5.45691989     -0.42620913      2.25889148
