32
CCCCCOC(=O)c1ccc(N)cc1
C      -5.88672337     -0.12736678     -0.15942799
C      -4.43983482     -0.50220346      0.11895702
C      -3.48589331      0.63274808     -0.25229238
C      -2.03379812      0.25224538      0.02879498
C      -1.07664908      1.38245796     -0.33767906
O       0.27140805      1.00898637     -0.01167779
C       0.94035719      0.32033356     -0.97000462
O       0.49935184     -0.00129970     -2.06204650
C       2.31890002     -0.00598774     -0.51356676
C       3.15160238     -0.72334189     -1.38027228
C       4.45441605     -1.05547620     -0.99397332
C       4.96025751     -0.64220271      0.24050710
N       6.21757152     -1.07939036      0.66868287
C       4.10719801      0.02182237      1.12556877
C       2.80181469      0.35830216      0.74859475
H      -6.55136728     -0.95308619      0.11323799
H      -6.03744476      0.09375481     -1.22090103
H      -6.18259062      0.75262749      0.42057858
H      -4.18598521     -1.40363871     -0.45087150
H      -4.33022685     -0.74836204      1.18155349
H      -3.60207918      0.87761240     -1.31511304
H      -3.74684882      1.53310529      0.31715286
H      -1.76815706     -0.65371263     -0.52922866
H      -1.90520955     -0.00043120      1.08869065
H      -1.16380963      1.66508647     -1.39368168
H      -1.30795937      2.27622617      0.25201846
H       2.78716529     -1.04036403     -2.35557140
H       5.07106871     -1.64170454     -1.67055720
H       6.86961644     -1.26630965     -0.08685949
H       6.62891108     -0.50665076      1.39900075
H       4.45199231      0.28494904      2.12245938
H       2.17294593      0.89127102      1.45696310
