12
Clc1cccc(Cl)c1Cl
Cl      3.06090676      0.35848176      0.04297398
C       1.34250552      0.15356025      0.01850997
C       0.85960499     -1.15506053     -0.10333639
C      -0.51209063     -1.39811430     -0.13016768
C      -1.40434337     -0.33218898     -0.03512984
C      -0.92777741      0.97873411      0.08690838
Cl     -2.10992050      2.23790897      0.19875890
C       0.45189485      1.23376736      0.11486526
Cl      1.04656780      2.85734879      0.26602261
H       1.55218641     -1.99115381     -0.17790451
H      -0.88483100     -2.41577334     -0.22491365
H      -2.47470340     -0.52751028     -0.05658703
