37
O=S(=O)([O-])c1ccc(N=Nc2c([O-])ccc3cc(S(=O)(=O)[O-])ccc23)cc1.[Al+3]
O       6.00017527      1.15278393      1.44790437
S       4.55653721      1.25964889      1.79321542
O       4.34193001      0.81252150      3.22990763
O       4.10312121      2.87548173      1.63059745
C       3.59409093      0.23188555      0.73516548
C       2.42451620     -0.31001349      1.17531203
C       1.64204535     -1.11823852      0.38149400
C       2.05238549     -1.39510593     -0.91333426
N       1.22238254     -2.23434653     -1.70869881
N       0.10585313     -1.82301747     -2.08765654
C      -0.47152186     -0.55601023     -1.81066072
C       0.01016594      0.56146608     -2.45993410
O       1.05359604      0.47849994     -3.38500953
C      -0.58250646      1.76999483     -2.15799110
C      -1.61325854      1.85875152     -1.24565362
C      -2.10431649      0.74742430     -0.58923634
C      -3.13767769      0.84425400      0.32337282
C      -3.62477686     -0.26817865      0.97580439
S      -4.93987910     -0.15479080      2.13952572
O      -5.87786778      0.95824483      1.80402525
O      -5.65501561     -1.46975463      2.17876113
O      -4.27366873      0.10445862      3.66051445
C      -3.03050849     -1.47437346      0.67177827
C      -1.99981763     -1.57032750     -0.23848866
C      -1.50812443     -0.46026315     -0.89451510
C       3.23177480     -0.86073388     -1.38687499
C       3.98254629     -0.05768664     -0.55781767
Al      0.00000000      0.00000000      0.00000000
H       2.11082750     -0.08240170      2.20442824
H       0.71082229     -1.53118153      0.77904299
H      -0.20565991      2.64726907     -2.66675503
H      -2.08897851      2.81599913     -1.00080123
H      -3.59786252      1.80801846      0.55304965
H      -3.40012127     -2.36165887      1.17508203
H      -1.51978428     -2.52542455     -0.48775742
H       3.56142311     -1.06669418     -2.38707611
H       4.92715286      0.39349932     -0.88072009
