27
OC1CCN2C1=Nc1ccccc1C2O
O      -2.98724470     -0.69782086      1.59664172
C      -2.71495583     -0.39420522      0.23833402
C      -3.09184012      1.05748873     -0.06158577
C      -1.81762761      1.85131471      0.25249438
N      -0.76481083      0.92965012     -0.15083851
C      -1.20950180     -0.36282350      0.00729895
N      -0.49356485     -1.43734537      0.04479040
C       0.89277309     -1.25082884     -0.11160515
C       1.70025230     -2.37173624     -0.31673608
C       3.08179033     -2.23556535     -0.46369719
C       3.66806138     -0.97309689     -0.39995031
C       2.87357801      0.15417241     -0.19053623
C       1.48182390      0.02523610     -0.05440631
C       0.59529842      1.21619099      0.21523387
O       1.00853705      2.31238679     -0.57522964
H      -2.51818239     -1.53699131      1.76960429
H      -3.21806674     -1.11158492     -0.41470641
H      -3.94382680      1.41644739      0.52328870
H      -3.32617635      1.16282183     -1.12814471
H      -1.77911846      2.78923593     -0.30950080
H      -1.75506382      2.06991816      1.32509764
H       1.24413344     -3.35702215     -0.36115804
H       3.69826137     -3.11602152     -0.62443912
H       4.74440245     -0.86705267     -0.51014901
H       3.33867316      1.13645448     -0.13502972
H       0.67635182      1.48776979      1.27439121
H       0.61604359      2.10300740     -1.43946219
