29
O=C(O)c1c(Cl)c(Cl)c(Cl)c(Cl)c1C(=O)Nc1cccc(Cl)c1Cl
O       1.20858730     -2.17665963      1.38124369
C       2.09026775     -1.83850194      0.61849593
O       2.74625381     -2.67164578     -0.19893232
C       2.54347140     -0.45943434      0.42127764
C       3.79932728     -0.04367530      0.87901585
Cl      4.84256818     -1.16865689      1.69630479
C       4.18672301      1.29760695      0.70201150
Cl      5.74784992      1.83060995      1.26176350
C       3.30893288      2.21225050      0.08108476
Cl      3.78809992      3.87309121     -0.13381918
C       2.04177366      1.78692057     -0.36031135
Cl      0.95130122      2.89665762     -1.13457678
C       1.66341563      0.45098132     -0.17775222
C       0.37096499     -0.04719388     -0.68678167
O       0.40762539     -0.75626444     -1.68178440
N      -0.72275154      0.34274982      0.05219923
C      -2.08481491      0.02199945     -0.18016603
C      -2.50429293     -0.77061573     -1.25324960
C      -3.85903224     -1.05836915     -1.43981254
C      -4.81130747     -0.55669539     -0.55595320
C      -4.41311127      0.23739373      0.52077199
Cl     -5.64995894      0.82718683      1.57573829
C      -3.05460644      0.52950828      0.71279215
Cl     -2.53496388      1.52225744      2.04617381
H       2.33753581     -3.55253426     -0.05848038
H      -0.57018921      0.92148009      0.87372620
H      -1.79953726     -1.18457969     -1.96857001
H      -4.16781454     -1.67740606     -2.27979374
H      -5.86231751     -0.78846129     -0.71261592
