29
O=C(Nc1ccc(Cl)cc1)c1cc([N+](=O)[O-])ccc1O
O       0.45163163      2.05333233     -0.03010276
C       0.01851133      0.90579446     -0.08516103
N       0.76551879     -0.25764407     -0.11372596
C       2.16645998     -0.37366222      0.02085150
C       2.72000678     -1.65165002     -0.14236158
C       4.09835820     -1.85430499     -0.01936646
C       4.93131296     -0.77833648      0.27137332
Cl      6.62637503     -1.02379711      0.42389200
C       4.39535171      0.49451029      0.44133374
C       3.01524359      0.69550011      0.31790376
C      -1.46182913      0.74406329     -0.19102951
C      -2.10813886     -0.41354172      0.26640053
C      -3.50240735     -0.52788549      0.13430602
N      -4.17274912     -1.74878635      0.59968943
O      -5.41049346     -1.75738734      0.61974212
O      -3.45281799     -2.69919387      0.93805032
C      -4.25959341      0.50271502     -0.43579352
C      -3.61755627      1.66353526     -0.86556399
C      -2.23392673      1.78621138     -0.73333593
O      -1.69612473      2.97083515     -1.16051502
H       0.28534362     -1.12112620     -0.33030199
H       2.09119724     -2.50893461     -0.36949743
H       4.51221908     -2.85052874     -0.15105368
H       5.04034659      1.33859739      0.67169810
H       2.63825100      1.70247594      0.46661485
H      -1.54534010     -1.20802575      0.74984751
H      -5.33989122      0.42359302     -0.54328415
H      -4.19295481      2.47993940     -1.29739286
H      -0.76230435      3.01370193     -0.85093740
