39
CC(C)(SC(=O)N1CCCCC1)c1ccccc1
C       1.93443804      1.22419298      1.84889040
C       1.53808619      0.55205421      0.51669894
C       0.63665745      1.53897597     -0.25823618
S       0.59155707     -1.01857663      0.82412383
C      -0.88048214     -0.39704137      1.53993986
O      -0.83982946      0.11309704      2.65347644
N      -2.05475534     -0.52129827      0.79116466
C      -2.19850013     -1.39978731     -0.37657972
C      -3.29079450     -0.92483169     -1.33173712
C      -4.60454865     -0.67469635     -0.60321357
C      -4.38620060      0.30403926      0.54302122
C      -3.29575706     -0.18704691      1.48865133
C       2.81429718      0.16228565     -0.26784336
C       3.84828271     -0.55865617      0.36713011
C       5.01075833     -0.92709075     -0.31593023
C       5.16782882     -0.59025959     -1.65510535
C       4.15988742      0.10823286     -2.31092976
C       2.99561789      0.47658304     -1.62738739
H       2.64828867      2.03883518      1.67259276
H       2.40375260      0.52886120      2.55346850
H       1.07516768      1.67222372      2.35844784
H       0.22319557      1.09617047     -1.17219374
H       1.19738959      2.43650075     -0.54770385
H      -0.20813934      1.89012936      0.34521578
H      -2.43041816     -2.40289472      0.00152545
H      -1.26719033     -1.47100499     -0.94252146
H      -2.96653281      0.00478570     -1.81646583
H      -3.43835635     -1.66652760     -2.12452123
H      -5.34764900     -0.27295432     -1.30078033
H      -5.00098584     -1.62066848     -0.21513814
H      -5.32113285      0.44702732      1.09591924
H      -4.09956825      1.28100694      0.13397441
H      -3.62563303     -1.09165266      2.01445356
H      -3.11499629      0.58084841      2.24880562
H       3.75420558     -0.85866283      1.40904265
H       5.78877741     -1.48293009      0.20080928
H       6.06984360     -0.87743999     -2.18817718
H       4.27510342      0.36656011     -3.36059060
H       2.23833488      1.01268290     -2.19229687
