18
CCOC(=O)C(C)O
C      -2.85369683     -0.47200408     -0.45208391
C      -1.83666406      0.24415806      0.41486085
O      -0.54477726      0.07853488     -0.18222181
C       0.47045004      0.65988145      0.51175483
O       0.34217287      1.31046015      1.54386121
C       1.81597332      0.46783050     -0.19330672
C       2.09957432     -0.99494515     -0.48937657
O       2.89248094      0.96694861      0.60403760
H      -2.60791061     -1.53583568     -0.53560301
H      -3.85998301     -0.37344573     -0.03550846
H      -2.84980894     -0.06368293     -1.46813611
H      -2.08323903      1.31030459      0.47091485
H      -1.83778792     -0.18916634      1.42132521
H       1.79705890      1.05412517     -1.11779767
H       1.35701688     -1.42284382     -1.16980380
H       3.09153974     -1.11242533     -0.93860485
H       2.09517206     -1.58596261      0.43352977
H       2.51242860      1.65806827      1.18215858
