32
CC(C)CCOC(=O)CC(C)C
C       4.17689140      0.29251403     -1.63259199
C       3.34109724     -0.35449050     -0.52568472
C       4.09422064     -0.27663308      0.80293299
C       1.95938980      0.31557484     -0.45595604
C       1.00075022     -0.35208128      0.52679369
O      -0.27363489      0.29704139      0.40825354
C      -1.24094939     -0.21963024      1.21458528
O      -1.08920633     -1.14761027      1.99716714
C      -2.54296087      0.51609387      1.01562914
C      -3.18251007      0.21708149     -0.34585951
C      -4.36164759      1.16007943     -0.58860810
C      -3.65001390     -1.23705771     -0.43867331
H       4.35035724      1.35503552     -1.43049509
H       3.67208710      0.20919926     -2.60090480
H       5.15145066     -0.19902085     -1.72261133
H       3.20611273     -1.41290469     -0.78214289
H       5.09830615     -0.70362710      0.70553885
H       4.19957244      0.76028626      1.13945943
H       3.57848699     -0.83946831      1.58678103
H       1.49691350      0.30631474     -1.45199959
H       2.06204842      1.37673614     -0.19340325
H       0.89260519     -1.41548426      0.28380003
H       1.36117605     -0.24084472      1.55487857
H      -3.22026886      0.24219427      1.83373314
H      -2.33870550      1.58780982      1.13003262
H      -2.44486167      0.38612113     -1.14039179
H      -4.81513968      0.97235995     -1.56764910
H      -5.13716283      1.03221838      0.17435461
H      -4.03440244      2.20499291     -0.56805593
H      -4.11939591     -1.43179290     -1.40897401
H      -2.80935057     -1.93056088     -0.33516194
H      -4.38125529     -1.47044665      0.34273522
