33
CCCC(C)(COC(N)=O)COC(N)=O
C      -2.57614476     -2.46317848      0.00697765
C      -1.56253573     -1.62375707     -0.75837191
C      -0.99534013     -0.50294990      0.12054720
C       0.03192362      0.44178921     -0.57240125
C      -0.65091879      1.23326376     -1.70557778
C       0.57737785      1.43670308      0.48746084
O      -0.49171146      2.23973426      1.01220794
C      -0.10726305      3.12344761      1.95889502
N      -1.17642820      3.82720904      2.38976600
O       1.02470434      3.28742954      2.38267105
C       1.22857845     -0.33680253     -1.16687114
O       1.85216288     -1.13195953     -0.14902648
C       2.88447465     -1.88478593     -0.58891204
N       3.40695799     -2.59054803      0.43707604
O       3.30921979     -1.93573960     -1.73108988
H      -2.11701119     -2.92855232      0.88503162
H      -2.96862333     -3.25952229     -0.63317719
H      -3.41924827     -1.85100544      0.34274830
H      -2.05264375     -1.20680277     -1.64386943
H      -0.75965773     -2.28264732     -1.10444470
H      -1.83553202      0.09425353      0.49923863
H      -0.52856138     -0.95842512      1.00415418
H      -0.94001593      0.58114103     -2.53630564
H       0.02389439      1.99496881     -2.11281545
H      -1.55430524      1.74308296     -1.35360289
H       1.32397242      2.09906872      0.03056842
H       1.05112511      0.89195820      1.31388308
H      -2.08729063      3.64821393      1.99779686
H      -1.04579698      4.53263881      3.09834313
H       1.96877592      0.36620835     -1.57100799
H       0.89691164     -0.98676460     -1.98572477
H       4.22902892     -3.15143003      0.27355365
H       3.05992060     -2.44623988      1.37227892
