18
Cc1cccc(C(=O)O)c1
C      -2.65777376     -0.77575200     -0.10444788
C      -1.32745818     -0.08234016     -0.11545804
C      -1.24862818      1.30027663     -0.32227792
C      -0.00939701      1.94178298     -0.36390611
C       1.16609404      1.20566412     -0.20964244
C       1.10337796     -0.17906566     -0.01715771
C       2.32325091     -1.00682410      0.14365582
O       2.35174971     -2.21212406      0.31156075
O       3.45714761     -0.28539751      0.08688731
C      -0.14316895     -0.81902127      0.02417724
H      -2.92268931     -1.09270781     -1.11778027
H      -2.63404459     -1.65528729      0.54750926
H      -3.44144651     -0.11170266      0.27513916
H      -2.15535806      1.88796759     -0.45167711
H       0.04014219      3.01670833     -0.51967816
H       2.12348276      1.71933927     -0.24517441
H       4.16387232     -0.95375648      0.20644646
H      -0.18915296     -1.89775995      0.16688043
