37
Cc1ccc2c3c1CCCC3CN(C(N)=NO)C2
C      -4.24786285      1.30286636     -0.56020795
C      -2.75243280      1.28307307     -0.38799883
C      -2.07319458      2.50065179     -0.24913757
C      -0.69231537      2.53018758     -0.06753430
C       0.04951326      1.34303358     -0.03598895
C      -0.61906431      0.11335927     -0.19529091
C      -2.02216006      0.07364098     -0.37190441
C      -2.75120323     -1.25298546     -0.45181637
C      -1.85217513     -2.46830373     -0.66920467
C      -0.59980503     -2.38134636      0.19237382
C       0.21168200     -1.15370208     -0.22588697
C       1.46917930     -0.99568900      0.63705409
N       2.25009110      0.14307412      0.13530208
C       3.62237522      0.17155929      0.23631008
N       4.21890941     -1.03685090      0.04080800
N       4.31076975      1.25718914      0.44926256
O       5.69067670      0.98780055      0.45627659
C       1.54318933      1.43096918      0.22283006
H      -4.51806379      0.94587499     -1.55893182
H      -4.65239459      2.31460968     -0.44836187
H      -4.73026720      0.67671433      0.19695515
H      -2.62003887      3.44102569     -0.26785241
H      -0.19509763      3.49018519      0.05583395
H      -3.29628175     -1.38861853      0.49116126
H      -3.48875485     -1.22904127     -1.26217440
H      -2.40897613     -3.38375206     -0.43925891
H      -1.56483071     -2.52961649     -1.72676117
H      -0.87825882     -2.32478523      1.25247395
H      -0.00020036     -3.28975461      0.06172357
H       0.52832271     -1.29168675     -1.27057740
H       2.03740129     -1.93151262      0.59462896
H       1.21332685     -0.82836421      1.69188328
H       3.87629516     -1.47982834     -0.80123298
H       5.22123424     -0.87707288     -0.02504435
H       6.06169672      1.86072010      0.68147975
H       1.96949625      2.12347942     -0.51407325
H       1.68921881      1.85289621      1.22561744
