35
CCOc1cc(Oc2ccc(C(F)(F)F)cc2Cl)ccc1[N+](=O)[O-]
C       5.63712979      0.80071966     -1.34392682
C       4.15564148      0.47050342     -1.32487445
O       3.80923526      0.08398696      0.00482410
C       2.53991949     -0.37038161      0.22826434
C       1.49412950     -0.29536547     -0.69633013
C       0.21009734     -0.74494286     -0.35611768
O      -0.74969046     -0.65600073     -1.34146336
C      -1.99797157     -0.21385787     -0.96256663
C      -2.15724685      1.03256131     -0.34753063
C      -3.43461301      1.48551265     -0.00817054
C      -4.56732811      0.70401998     -0.28692312
C      -5.95117422      1.20169986      0.05674129
F      -5.96220905      2.05876951      1.11503167
F      -6.80976760      0.19615638      0.38240062
F      -6.52882495      1.87146021     -0.97717430
C      -4.39806280     -0.53267859     -0.93223839
C      -3.12092420     -0.98664715     -1.27196095
Cl     -2.97055756     -2.51470776     -2.05836844
C      -0.04364257     -1.30870065      0.89815292
C       0.98450136     -1.39017852      1.83402800
C       2.25873917     -0.92103328      1.48590297
N       3.30821976     -1.02878641      2.47944238
O       4.24250748     -1.80629240      2.24225865
O       3.15866870     -0.37365690      3.52098542
H       5.95588507      1.10580688     -2.34454593
H       6.22920323     -0.06649575     -1.03290883
H       5.86121451      1.60864366     -0.63942619
H       3.96207604     -0.35016130     -2.02544923
H       3.58635179      1.35969150     -1.61837347
H       1.63740531      0.11995720     -1.68905466
H      -1.29315513      1.65865876     -0.13779280
H      -3.54422488      2.45780299      0.47255964
H      -5.26906003     -1.14204103     -1.17147546
H      -1.02861999     -1.69336857      1.14956904
H       0.79614771     -1.82065409      2.81509244
