30
N#CCCNC(Cc1ccccc1)C(=O)O
N       4.27286002      1.89618380      3.06451668
C       3.32601876      1.26996101      2.82363600
C       2.13312846      0.47321721      2.51255541
C       2.05429612      0.19248809      1.00963239
N       0.85773548     -0.59995249      0.69377690
C       0.74052794     -0.85661945     -0.77260162
C      -0.69117675     -1.29189607     -1.13532432
C      -1.66286166     -0.13581249     -1.19598254
C      -1.88313980      0.54187966     -2.40318961
C      -2.77031840      1.61809203     -2.45810799
C      -3.44140881      2.02934714     -1.30809483
C      -3.22453394      1.36651439     -0.10169354
C      -2.33836952      0.28983849     -0.04491721
C       1.69382263     -1.98295142     -1.18117795
O       2.19721738     -2.81055275     -0.43552798
O       1.95337470     -2.00495070     -2.50326976
H       1.23619106      1.01121792      2.84177447
H       2.16782063     -0.47028795      3.07013603
H       2.96079880     -0.33329750      0.68543900
H       2.01641635      1.14673909      0.46886653
H       0.92210183     -1.51114830      1.15911477
H       1.01708570      0.04843067     -1.32824269
H      -0.70194627     -1.80181983     -2.10833464
H      -1.05973158     -2.04527561     -0.42520630
H      -1.36579212      0.23583110     -3.30970805
H      -2.93727707      2.13670884     -3.39849392
H      -4.13116431      2.86797201     -1.35121881
H      -3.74303437      1.68968705      0.79700364
H      -2.17044897     -0.21189008      0.90551163
H       2.57180771     -2.75765385     -2.61810854
