26
CCC[C@H]1CCCCN1
C      -3.74226768     -0.03384031     -0.36763472
C      -2.32791850     -0.56102506     -0.17637897
C      -1.35899328      0.56404960      0.19788786
C       0.05976584      0.06455718      0.53496926
C       0.74116726     -0.61295907     -0.66551882
C       2.18317881     -1.00179297     -0.34708954
C       2.95510610      0.19128573      0.20191827
C       2.21205806      0.83436287      1.36840092
N       0.85411994      1.21925006      0.98614806
H      -4.11841138      0.42469113      0.55246634
H      -3.77677757      0.71561977     -1.16479386
H      -4.41753701     -0.85109407     -0.63980061
H      -2.00981369     -1.04592418     -1.10516833
H      -2.33298187     -1.32566117      0.60880164
H      -1.31529859      1.29175203     -0.62333135
H      -1.76628238      1.09734599      1.06757163
H      -0.01607533     -0.65650983      1.35994537
H       0.19650884     -1.51746426     -0.95719727
H       0.73123927      0.06072755     -1.53227450
H       2.67557674     -1.38606934     -1.24717678
H       2.18719751     -1.81180188      0.39271081
H       3.95123612     -0.12935696      0.52692564
H       3.10098395      0.93086660     -0.59559991
H       2.75613132      1.72923416      1.68971208
H       2.18393175      0.15147091      2.22622403
H       0.39415578      1.65828554      1.78345381
