22
CC(C)Nc1nc(N)nc(Cl)n1
C      -2.95283653     -0.74855560     -0.82690467
C      -1.76703739      0.10128010     -0.36854534
C      -2.03209177      0.66080295      1.02904681
N      -0.57881747     -0.74242285     -0.37136759
C       0.65790820     -0.12485415     -0.29823274
N       1.61486034     -0.83268123      0.29151614
C       2.80772834     -0.26015968      0.36647641
N       3.81935043     -0.97843422      0.97054846
N       3.10943711      0.92709635     -0.11393189
C       2.07389050      1.53241549     -0.67388555
Cl      2.37307209      3.08991802     -1.31258745
N       0.83544517      1.08287850     -0.80169761
H      -3.87126267     -0.15306341     -0.85805695
H      -3.11980773     -1.59848289     -0.15546142
H      -2.77637750     -1.15072210     -1.83072359
H      -1.66368125      0.92895072     -1.08118793
H      -1.21257114      1.30690702      1.36103992
H      -2.95081164      1.25670867      1.04102905
H      -2.13813783     -0.14265872      1.76667395
H      -0.58039740     -1.51514462      0.28571815
H       4.72540927     -0.66984892      0.64574259
H       3.62672888     -1.96992942      0.93479124
