15
C1=CC=CCC=C1
C       1.69543688     -0.00484560     -0.08681361
C       1.16202893      1.21227350     -0.24929438
C      -0.19649312      1.62031529      0.00015219
C      -1.28810556      0.84360610     -0.01424617
C      -1.39648871     -0.63957658     -0.20643891
C      -0.26660582     -1.48723017      0.29691375
C       1.03972272     -1.20045568      0.37671553
H       2.75559887     -0.12708147     -0.30436440
H       1.81807978      2.01213044     -0.58994032
H      -0.32967019      2.69049597      0.15259802
H      -2.24566761      1.34311849      0.12749774
H      -1.59421994     -0.86687779     -1.25997929
H      -2.29101812     -0.95783715      0.34616370
H      -0.57198064     -2.47586418      0.63732208
H       1.70938252     -1.96217118      0.77371408
