28
C/C=C/CCC1CCCC(=O)O1
C       4.34611638     -1.75781489     -0.58293111
C       3.02762555     -1.51060696      0.07467007
C       2.54284833     -0.29019047      0.35078339
C       1.21849854     -0.04998773      1.02034618
C       0.25392436      0.68730790      0.08442868
C      -1.08481765      0.99955985      0.77275939
C      -1.99738000      1.88011913     -0.07477328
C      -2.58160340      1.08655070     -1.22619711
C      -3.31588703     -0.12305093     -0.68841508
C      -2.53155585     -0.92434233      0.31735692
O      -2.71205577     -2.12987916      0.45893884
O      -1.72321739     -0.23621108      1.15657719
H       4.19897049     -2.30902836     -1.51667849
H       4.98350070     -2.35721914      0.07419582
H       4.87395414     -0.82747633     -0.81511730
H       2.44748504     -2.39449628      0.33343132
H       3.12731341      0.59170710      0.09596513
H       1.39162917      0.54749640      1.92331434
H       0.77540706     -0.99836346      1.34670925
H       0.71503912      1.62194541     -0.25867365
H       0.08693388      0.05966110     -0.79951261
H      -0.87624057      1.53877730      1.70477200
H      -2.82186439      2.24555941      0.55076758
H      -1.45945618      2.75946485     -0.44558053
H      -3.27039177      1.71329696     -1.80368745
H      -1.78926195      0.77125546     -1.91420674
H      -4.24745915      0.18640519     -0.20050253
H      -3.57805507     -0.78043964     -1.52492016
