25
C#CCCCCCCC
C      -5.41639388      1.15618812      0.50282139
C      -4.45348832      0.54915145      0.12029411
C      -3.27690829     -0.19682682     -0.35012359
C      -1.98290452      0.43457595      0.16317231
C      -0.75513931     -0.33752708     -0.32320535
C       0.53951696      0.29461000      0.19064238
C       1.76701775     -0.47753747     -0.29578948
C       3.06063604      0.15419458      0.21771138
C       4.28336054     -0.61047541     -0.26367439
H      -6.27078945      1.69504912      0.84240609
H      -3.27159977     -0.21688364     -1.44618452
H      -3.34382888     -1.23670954     -0.00961615
H      -1.99162991      0.45853127      1.26052256
H      -1.91948359      1.47712196     -0.17432347
H      -0.81657345     -1.37797633      0.01838244
H      -0.74425989     -0.35702908     -1.41978765
H       0.52871047      0.31421418      1.28722945
H       0.60101358      1.33509765     -0.15083646
H       1.70562977     -1.51812706      0.04549550
H       1.77791956     -0.49737027     -1.39240150
H       3.12896274      1.19349585     -0.12417892
H       3.05667891      0.17267757      1.31377113
H       5.19695677     -0.14165280      0.11508457
H       4.33464443     -0.62015091     -1.35711456
H       4.26195173     -1.64664128      0.08879797
