50
CC1(C)C[C@H]1C(=O)N/C(=C\CCCCSC[C@@H](N)C(=O)O)C(=O)O
C      -3.75574140      0.98571532     -1.13066377
C      -3.72583795      1.51561497      0.28143839
C      -2.89260606      2.76078779      0.44803038
C      -5.00236238      1.40587953      1.07999095
C      -3.80903892      0.56457865      1.47166971
C      -3.84785062     -0.91257240      1.30435224
O      -4.83993124     -1.54599215      1.63162985
N      -2.69847223     -1.43350145      0.77581127
C      -2.31537235     -2.74227780      0.53759695
C      -1.12429679     -2.97385258     -0.06189964
C      -0.13405649     -1.97504754     -0.59734416
C       0.92748218     -1.62780407      0.44740127
C       1.90819896     -0.55085726     -0.02875359
C       2.86654384     -1.05446956     -1.10786612
S       3.98422823      0.26874920     -1.68231546
C       5.16076590      0.32670211     -0.27149206
C       5.63924613      1.75485209      0.03485421
N       6.09461484      2.51325816     -1.17691690
C       4.53571729      2.56508569      0.73446407
O       3.80454835      2.15016447      1.61964678
O       4.49201693      3.84031791      0.26394070
C      -3.06542667     -4.00448582      0.90930033
O      -2.53144489     -5.10930423      0.88590955
O      -4.36296582     -3.89775850      1.23107281
H      -4.11857551      1.75812212     -1.81693895
H      -2.74998490      0.69217554     -1.44868174
H      -4.41318057      0.11650890     -1.23686946
H      -2.90918975      3.13077086      1.47932182
H      -1.85008844      2.55759572      0.18056334
H      -3.26719319      3.56013094     -0.20054165
H      -5.28140852      2.22205366      1.73839015
H      -5.85895448      0.90446977      0.63944430
H      -3.32014182      0.86430057      2.39537609
H      -2.01047403     -0.72893781      0.54063266
H      -0.80772396     -4.00741343     -0.21963272
H      -0.63681636     -1.06796305     -0.94978775
H       0.33546859     -2.41504567     -1.48462997
H       0.43123588     -1.25595803      1.35296104
H       1.48028345     -2.52883593      0.74122059
H       1.34357711      0.31672984     -0.39232008
H       2.47562031     -0.21536540      0.84628388
H       2.30668989     -1.39124922     -1.98522696
H       3.45953794     -1.90315231     -0.75148712
H       4.71399587     -0.12320452      0.61946974
H       6.01967233     -0.29153074     -0.55440877
H       6.47931898      1.71970072      0.73834352
H       6.96501012      2.08129042     -1.50111201
H       5.42885360      2.27528169     -1.92880804
H       5.18273777      3.88710944     -0.44590125
H      -4.70622914     -2.98136660      1.32304915
