35
c1ccc2c3c(ccc2c1)Nc1ccc2ccccc2c1S3
C       5.52065301      0.76121107     -0.75718388
C       4.55885910      1.75505832     -0.84880823
C       3.21046867      1.43807182     -0.66074792
C       2.77289627      0.11734547     -0.37351091
C       1.40381125     -0.26694303     -0.17058778
C       1.07564336     -1.60351568      0.12436051
C       2.09760008     -2.55928831      0.18119804
C       3.42866074     -2.20164947     -0.01439990
C       3.77953718     -0.87744677     -0.28715020
C       5.13225615     -0.54649177     -0.47853190
N      -0.24626345     -2.04705873      0.29648161
C      -1.41538744     -1.26920163      0.33985159
C      -2.62710612     -1.92519840      0.58991785
C      -3.83137433     -1.22730079      0.61364056
C      -3.86422054      0.14840243      0.37409679
C      -5.09534103      0.82613045      0.40625127
C      -5.16915326      2.19587346      0.16762617
C      -4.01050797      2.90514446     -0.10742067
C      -2.78040682      2.24209923     -0.14245099
C      -2.66182328      0.84672713      0.09664599
C      -1.42716261      0.11299469      0.07431440
S       0.10808720      0.97407213     -0.29429989
H       6.57048545      1.00029292     -0.90262091
H       4.84910977      2.77954414     -1.06652497
H       2.49453945      2.25305459     -0.74274194
H       1.86387676     -3.60234961      0.37932210
H       4.19142822     -2.97538581      0.04487102
H       5.90168963     -1.31324120     -0.41207206
H      -0.33729842     -2.97643337      0.68597746
H      -2.64458981     -2.99727889      0.76934203
H      -4.74873430     -1.77555187      0.81825371
H      -6.01599518      0.28620019      0.61890259
H      -6.12874185      2.70463964      0.19604715
H      -4.05490296      3.97454974     -0.29614996
H      -1.90059293      2.84292344     -0.36247930
