25
OCC(O)COCC(O)CO
O      -2.34953084     -0.64872249      2.56261459
C      -2.12967888     -1.54253234      1.47054329
C      -2.41819505     -0.83540067      0.14169618
O      -3.74431385     -0.29054273      0.21416383
C      -1.40836781      0.28208160     -0.14692391
O      -0.12023702     -0.28184543     -0.40073220
C       0.85694931      0.74048122     -0.65659298
C       2.20802025      0.04827260     -0.86273733
O       2.57258785     -0.62477203      0.35520460
C       3.31745204      1.03879840     -1.20968164
O       3.50432511      1.96358002     -0.13947620
H      -3.22153963     -0.24421135      2.38183905
H      -1.10360118     -1.91780421      1.52233504
H      -2.81540288     -2.38549947      1.60578381
H      -2.39100226     -1.58000920     -0.66222127
H      -3.97405025      0.02572494     -0.67765490
H      -1.73449784      0.84948258     -1.02720156
H      -1.35814265      0.98460198      0.69371074
H       0.89412679      1.41073243      0.20974948
H       0.56944584      1.30289321     -1.55150537
H       2.12587294     -0.71685073     -1.64248137
H       1.76482218     -1.09953617      0.63586891
H       3.08253603      1.60052124     -2.11848136
H       4.26777874      0.51525984     -1.35611869
H       3.60464307      1.40529674      0.65829926
