28
O=[N+]([O-])OCCOCCOCCO[N+](=O)[O-]
O       6.26790279     -1.07846225     -0.56743297
N       5.61300035     -0.90616188      0.45873688
O       5.88995387     -1.18097823      1.62767736
O       4.37053765     -0.27797584      0.21752845
C       3.60582166     -0.10475117      1.41047647
C       2.26881168      0.52752295      1.03407358
O       1.48611249     -0.43329004      0.31865033
C       0.22523271      0.10454017     -0.07966646
C      -0.53938461     -0.94434004     -0.88565028
O      -1.81367728     -0.45584509     -1.30701207
C      -2.84197205     -0.67406174     -0.33700784
C      -4.13863700     -0.04274181     -0.84644329
O      -4.01635468      1.37426900     -0.98123865
N      -4.18177203      2.07542606      0.23430626
O      -4.39942032      1.40975266      1.24822369
O      -4.07013544      3.29248049      0.10298913
H       4.13579516      0.56720143      2.09550013
H       3.42512838     -1.07693929      1.88509579
H       1.73070512      0.82234043      1.94146825
H       2.43002050      1.40508670      0.39778970
H       0.37244614      1.00227814     -0.69197060
H      -0.34465860      0.39772514      0.80870371
H       0.03483094     -1.18438332     -1.78774394
H      -0.63799596     -1.88398395     -0.32829202
H      -2.53886051     -0.23887499      0.61909205
H      -2.98750173     -1.75238976     -0.21015612
H      -5.00044955     -0.32227346     -0.22856236
H      -4.34547968     -0.42117031     -1.85417065
