10
C=CC=C
C       1.71884332     -0.29078123      0.56628542
C       0.68707610      0.05897208     -0.21036479
C      -0.68707616     -0.05897180      0.21036505
C      -1.71884327      0.29078124     -0.56628545
H       1.58117499     -0.68721837      1.56715911
H       2.73800291     -0.18476146      0.20801754
H       0.88341283      0.45118359     -1.20611627
H      -0.88341305     -0.45118323      1.20611651
H      -2.73800292      0.18476066     -0.20801807
H      -1.58117473      0.68721852     -1.56715903
