63
CC(C)(C)CC(C)(C)CC(=O)[O-].CC(C)(C)CC(C)(C)CC(=O)[O-].[Ba+2]
C       2.02686633     -0.83690332     -0.88042028
C       1.43590529      0.02442968      0.17874249
C       1.75509837      1.48003777     -0.09731147
C       2.24566022     -0.30387138      1.45702273
C       0.04338495     -0.23085667      0.57550458
C      -1.06192765     -0.13770151     -0.37155146
C      -0.99055665     -1.07343567     -1.56138020
C      -1.37311450      1.23011902     -0.90474771
C      -2.33325349     -0.58783288      0.37630265
C      -2.63776391      0.23444766      1.53990942
O      -2.11004710      0.09751679      2.67638501
O      -3.57758365      1.25736913      1.42210856
C      -1.95222473      1.42311893     -0.25449260
C      -1.53527185      0.15836906      0.37994112
C      -2.44876579      0.02047614      1.62455714
C      -2.03272418     -0.95628385     -0.53401418
C      -0.14572440     -0.04190293      0.78548840
C       0.98469030     -0.00266975     -0.10867917
C       1.30228780      1.21505744     -0.88784388
C       1.02508904     -1.18626190     -1.09137146
C       2.25036023     -0.25386918      0.74848886
C       3.46306742     -0.23954296     -0.05060865
O       3.96308115      0.83655050     -0.46139696
O       4.13501121     -1.41135254     -0.40364057
Ba      0.00000000      0.00000000      0.00000000
H       3.13985329     -0.89047183     -0.68422053
H       1.96296143     -0.42161077     -1.90224851
H       1.69028807     -1.88919438     -0.80065414
H       2.86259154      1.61672506      0.08104662
H       1.25719525      2.14798971      0.61383660
H       1.60224158      1.77099664     -1.14694550
H       2.33714574     -1.39045104      1.47746556
H       1.66015990      0.01749818      2.36046991
H       3.19922477      0.22055589      1.41230617
H       0.00960586     -1.25713363      1.05070494
H      -0.16382298      0.45562129      1.44931448
H      -0.65465703     -2.07214122     -1.20277678
H      -2.02463392     -1.14214320     -1.98327652
H      -0.35237986     -0.74450464     -2.36977610
H      -2.42573170      1.18010202     -1.30978006
H      -0.75274552      1.52355552     -1.77412182
H      -1.39006034      1.99140665     -0.10541571
H      -2.18045217     -1.63824609      0.73344242
H      -3.19945211     -0.63187277     -0.30993537
H      -3.05424680      1.51887038     -0.09729652
H      -1.52993271      2.33937436      0.16655491
H      -1.89737735      1.39465822     -1.38392071
H      -2.19561524      0.77698529      2.38027947
H      -2.29752948     -1.02472976      1.96454873
H      -3.48748952      0.13880455      1.25048758
H      -3.08920936     -1.25258766     -0.30605441
H      -1.42722116     -1.87269153     -0.44236966
H      -2.02689620     -0.65545534     -1.59763090
H      -0.09389138     -1.03290720      1.32673429
H       0.04959281      0.68100721      1.64072968
H       1.98136873      0.91542405     -1.72077589
H       0.46106963      1.69651003     -1.40733681
H       1.92033375      1.94673558     -0.30740506
H       0.94567837     -2.15430615     -0.56966732
H       0.30697182     -1.08775848     -1.89884462
H       2.06983012     -1.14848119     -1.50691218
H       2.14545066     -1.26707841      1.22426292
H       2.21023713      0.52593710      1.53818845
