58
CCC(CC)C(=O)OCCOCCOCCOC(=O)C(CC)CC
C       5.83755118     -0.91497061      1.64226721
C       6.58921576      0.33251037      1.19234877
C       6.33089060      0.67776113     -0.28258986
C       7.24355736      1.82489397     -0.74408467
C       7.16338453      2.06042092     -2.24645371
C       4.87479626      1.07135683     -0.46462950
O       4.35272252      2.05794587      0.03747939
O       4.23836124      0.16388132     -1.25258488
C       2.83318739      0.39880637     -1.46104126
C       2.00818691     -0.05887385     -0.25708387
O       2.10896635     -1.48313589     -0.14119494
C       1.61981716     -1.98670416      1.10754367
C       0.09182429     -1.96017030      1.20453420
O      -0.34681957     -0.64343172      1.55516557
C      -1.75462137     -0.55150202      1.76497037
C      -2.55016884     -0.53184218      0.46241024
O      -3.93215517     -0.30496405      0.77194390
C      -4.76461170     -0.35296298     -0.30782755
O      -4.40439947     -0.58944581     -1.45153826
C      -6.19221912     -0.05101062      0.12706460
C      -7.21592394     -0.80736900     -0.74043541
C      -7.48605387     -0.21438987     -2.11696422
C      -6.38245970      1.46959151      0.20387837
C      -7.71618539      1.87700890      0.81363745
H       6.11144928     -1.16733957      2.67089590
H       4.75496952     -0.76282987      1.61277339
H       6.08183026     -1.77035547      1.00612169
H       7.66207994      0.16078866      1.34391079
H       6.30537981      1.17116484      1.83891031
H       6.54620697     -0.20690003     -0.89571510
H       6.98677160      2.75489019     -0.22065793
H       8.28412384      1.58995231     -0.48712695
H       6.15879505      2.37358455     -2.54854153
H       7.86075247      2.84712037     -2.54516082
H       7.42186348      1.15173006     -2.80021515
H       2.65597139      1.45720287     -1.68508173
H       2.55253995     -0.17960270     -2.34720921
H       0.96184538      0.21330169     -0.42387832
H       2.37062716      0.41136085      0.66258478
H       2.08824833     -1.44159516      1.93590958
H       1.95391129     -3.02851342      1.16152710
H      -0.34771557     -2.25453023      0.24648120
H      -0.22968131     -2.65498202      1.98831892
H      -2.10113938     -1.35301147      2.42931342
H      -1.93968140      0.38477499      2.30506362
H      -2.43903284     -1.48446927     -0.06537135
H      -2.17882305      0.27078954     -0.18483112
H      -6.29420657     -0.46875961      1.13908640
H      -6.88306036     -1.84467577     -0.86895309
H      -8.16962085     -0.85829877     -0.20072265
H      -6.57222054     -0.12783458     -2.70994374
H      -8.18145455     -0.85712459     -2.66656827
H      -7.94514788      0.77443487     -2.04770046
H      -5.58115253      1.90694439      0.81337114
H      -6.27602946      1.92137461     -0.78966526
H      -7.77451339      2.96818089      0.89376079
H      -7.83109012      1.45835578      1.81928499
H      -8.55963934      1.54360839      0.20321302
