23
CCCC=C(C=O)CC
C       3.56899657      0.34670653     -0.07062375
C       2.16957641     -0.24796676     -0.04559391
C       1.31767052      0.37455306      1.05988884
C      -0.05526520     -0.23785133      1.09973848
C      -1.21881522      0.25753167      0.63474674
C      -1.29430451      1.57250938     -0.06433785
O      -2.35501003      2.07273226     -0.42113265
C      -2.52551661     -0.47844961      0.80619167
C      -2.96913543     -1.17440330     -0.47351363
H       4.08556237      0.17419392      0.87896321
H       3.53346901      1.42567834     -0.25205142
H       4.16163208     -0.11237544     -0.86808615
H       2.24386717     -1.33246606      0.10069864
H       1.69498307     -0.08652625     -1.02115764
H       1.79333717      0.20228936      2.03372337
H       1.27694081      1.46147222      0.94116652
H      -0.08302268     -1.21238562      1.58938402
H      -0.33979892      2.08300534     -0.25752404
H      -2.43532818     -1.23124416      1.59956101
H      -3.30612427      0.21430492      1.14291088
H      -2.21965278     -1.89920614     -0.80898334
H      -3.13752567     -0.45857291     -1.28447138
H      -3.90653568     -1.71352943     -0.30259354
