36
Cc1cc(=O)oc2c3c4c(cc12)CCCN4CCC3
C       4.19777727     -1.18146659     -0.21017322
C       3.35639835      0.06005677     -0.16839442
C       3.91294562      1.27909801     -0.20914338
C       3.13446377      2.52444567     -0.17138710
O       3.69281384      3.61458089     -0.21693773
O       1.76119839      2.39530272     -0.08480294
C       1.13108591      1.12951579     -0.03499828
C      -0.27445709      1.11981726      0.05330030
C      -0.96083017     -0.11123724      0.06416363
C      -0.19929042     -1.29948937      0.04324115
C       1.20667340     -1.25452529     -0.03878238
C       1.89200531     -0.03895918     -0.07991616
C      -0.87076153     -2.65170598      0.05017060
C      -2.31430855     -2.57039744      0.52082018
C      -3.00904274     -1.42170543     -0.18995833
N      -2.36014967     -0.15809230      0.15478404
C      -3.08615426      1.06284386     -0.19104210
C      -2.47260762      2.24802662      0.53248808
C      -1.03192051      2.42553973      0.07777826
H       3.94927824     -1.79083816     -1.08561491
H       5.26651836     -0.94743598     -0.27254371
H       4.05119476     -1.78169386      0.69411682
H       4.98580180      1.42008150     -0.27402648
H       1.74904980     -2.19622532     -0.07155019
H      -0.83763877     -3.05598251     -0.96926074
H      -0.32241532     -3.34248597      0.70153862
H      -2.34411782     -2.40814841      1.60612844
H      -2.82842827     -3.51624994      0.31827104
H      -3.00019549     -1.56941770     -1.27747452
H      -4.05842775     -1.39549494      0.12654955
H      -4.13460839      0.96786635      0.11522343
H      -3.07663865      1.21660086     -1.27771277
H      -3.04405075      3.16076845      0.33150821
H      -2.50213511      2.07674931      1.61647226
H      -0.54302357      3.13960008      0.75071247
H      -1.01600235      2.85065774     -0.93354771
