53
COC(=O)C1=CO[C@@H](O[C@@H]2O[C@H](CO)[C@@H](O)[C@H](O)[C@H]2O)[C@H]2[C@@H]1C[C@H](O)[C@@H]2C
C       4.68087981      3.83586897     -1.64242532
O       3.80861421      3.00863772     -0.86014032
C       3.35853097      1.90881258     -1.51704116
O       3.65199724      1.59723045     -2.66286741
C       2.45332995      1.09143335     -0.66613757
C       1.86201173      1.61775862      0.41751723
O       0.92488105      0.99555929      1.20315354
C       0.33887492     -0.19148982      0.64401670
O      -0.67118055      0.15843954     -0.30992768
C      -1.91927634      0.44860676      0.32966195
O      -2.52420173     -0.77310296      0.74894881
C      -3.82272240     -0.59040816      1.33746730
C      -4.32309006     -1.98174328      1.74919096
O      -4.28772805     -2.88056352      0.63774715
C      -4.79441763      0.09491357      0.36116266
O      -6.03295938      0.37621168      1.01763096
C      -4.18456508      1.41297603     -0.12570350
O      -5.04995903      2.00739809     -1.11067309
C      -2.79654890      1.17314662     -0.71038464
O      -2.22242165      2.44135397     -1.08581897
C       1.36317478     -1.09099880     -0.04916399
C       2.17022910     -0.32080261     -1.10880799
C       3.40143021     -1.22368139     -1.25624238
C       3.74900969     -1.64568916      0.16613231
O       4.44229693     -2.88022549      0.17105464
C       2.41171080     -1.68918333      0.92710450
C       1.98492113     -3.06801394      1.42306675
H       5.00688363      4.67638952     -1.02610616
H       4.14897661      4.23003069     -2.51767730
H       5.56188061      3.25888683     -1.96093168
H       2.04349708      2.61703266      0.79793676
H      -0.10675650     -0.75417314      1.47460599
H      -1.74547197      1.10156510      1.19483397
H      -3.72789638      0.01714985      2.24248992
H      -5.34325533     -1.95426312      2.14336472
H      -3.66837584     -2.40269017      2.52401958
H      -3.37420795     -2.81934884      0.28283232
H      -5.01414432     -0.54617179     -0.50014879
H      -6.53799255      0.95752706      0.40262272
H      -4.13996414      2.13872333      0.69702608
H      -4.57602074      2.80460683     -1.41870170
H      -2.87537219      0.57655928     -1.62947448
H      -1.29255215      2.24200559     -1.32851386
H       0.83523230     -1.90581499     -0.56216384
H       1.61344008     -0.27961329     -2.05426055
H       4.25869415     -0.74858161     -1.74759069
H       3.15159243     -2.10766777     -1.85773044
H       4.39828009     -0.89481959      0.63092300
H       5.28858424     -2.74966255     -0.29515969
H       2.51017620     -1.04554239      1.80848562
H       1.87266958     -3.77665605      0.59850786
H       1.02002720     -3.00054584      1.94186063
H       2.71925414     -3.46737039      2.13042853
