39
COCCCNc1nc(NC(C)C)nc(SC)n1
C       5.96960308     -1.07653893     -0.51529706
O       5.03213832     -0.62740961     -1.48525026
C       3.85871963     -0.09054587     -0.87135713
C       2.90516353      0.34688714     -1.97715309
C       1.64925125      1.01920489     -1.43147911
N       0.84313117      0.05652821     -0.69825505
C      -0.35010960      0.56504269     -0.19370874
N      -1.37444048     -0.27346774     -0.20484260
C      -2.51794365      0.19152260      0.28080764
N      -3.65033887     -0.60675279      0.29687151
C      -3.46430844     -2.03981091      0.48178750
C      -4.77250475     -2.73896977      0.10974716
C      -3.09376832     -2.35811977      1.93037232
N      -2.67631715      1.40986647      0.76672390
C      -1.58980787      2.17240504      0.73831580
S      -1.78050508      3.82091356      1.38399487
C      -0.05000719      4.34322655      1.45861220
N      -0.40528928      1.80370747      0.26701673
H       6.84401021     -1.47195887     -1.03901228
H       6.28931279     -0.24620562      0.12165569
H       5.53673633     -1.87524905      0.09468227
H       4.13667607      0.76613457     -0.24665968
H       3.39544867     -0.85827931     -0.24155145
H       3.42803119      1.04437559     -2.64357618
H       2.64232425     -0.51952078     -2.59731744
H       1.07356396      1.42290393     -2.27389985
H       1.94267517      1.85935406     -0.78978144
H       0.58105280     -0.77148451     -1.22690742
H      -4.32356673     -0.16391417      0.91363210
H      -2.68614010     -2.42554646     -0.18849618
H      -5.04544137     -2.52313838     -0.92922015
H      -5.60038588     -2.40397865      0.74496146
H      -4.67899640     -3.82481869      0.21595632
H      -3.00143655     -3.43917176      2.07905517
H      -2.13698904     -1.90206906      2.20587675
H      -3.85120355     -1.98234454      2.62748953
H       0.39081089      4.37680439      0.45830637
H      -0.00120200      5.34855446      1.88609770
H       0.53205301      3.67186361      2.09625988
