22
CC(O[N+](=O)O)C(C)O[N+](=O)O
C       1.19578772     -1.30197540     -1.44678531
C       0.54581581     -0.60134054     -0.25384151
O       1.50842346      0.34862080      0.22528861
N       1.30939605      0.67809227      1.59861609
O       0.36868633      0.00424953      2.42291898
O       2.09261601      1.70929168      2.15254739
C      -0.78373539      0.08515521     -0.66562715
C      -0.57240752      1.35252899     -1.49460465
O      -1.51725184      0.49211737      0.49597881
N      -2.13413394     -0.63911569      1.11677900
O      -2.68619961     -1.68852957      0.34116990
O      -2.15837380     -0.72454440      2.52242579
H       0.52014489     -2.03769440     -1.89339758
H       1.50312724     -0.58769773     -2.21740896
H       2.10714154     -1.81989796     -1.12725333
H       0.36892001     -1.37000991      0.50732784
H       2.62661782      1.93388026      1.37566179
H      -1.39188375     -0.59959396     -1.26818557
H      -1.54064294      1.79460125     -1.75601441
H      -0.03095919      1.14827171     -2.42206681
H      -0.03008715      2.11706762     -0.92790831
H      -1.30100176     -0.29347713      2.71437939
