12
Clc1ccc(I)cc1
Cl     -3.13422195      0.10193604      0.15390882
C      -1.41693215      0.04608370      0.06958019
C      -0.76534841     -1.18619457      0.02972186
C       0.62941622     -1.23286866     -0.03877778
C       1.36100079     -0.04426464     -0.06683363
I       3.43576164     -0.11174310     -0.16871671
C       0.70877671      1.18934574     -0.02693603
C      -0.68607367      1.23340004      0.04155221
H      -1.33541176     -2.11130333      0.05158930
H       1.12794633     -2.19851277     -0.06942132
H       1.26945415      2.12054067     -0.04830624
H      -1.19436790      2.19358088      0.07263934
