42
CC(O)CN(CC(C)O)C(=O)COC(=O)c1ccccc1
C      -3.43308442      3.15507664     -1.14627600
C      -3.08482436      1.75593675     -0.65814419
O      -2.50921668      1.87112870      0.64231251
C      -2.10953101      1.05869508     -1.62694591
N      -1.49490904     -0.15861503     -1.07804367
C      -2.29896062     -1.38727260     -1.04759796
C      -3.23585379     -1.50604111      0.17431556
C      -3.61009821     -2.95433640      0.45476697
O      -2.64240518     -0.94683710      1.35069200
C      -0.32346029     -0.14449514     -0.31240958
O      -0.03422639     -1.10568208      0.41084639
C       0.57381607      1.10072627     -0.37963795
O       1.83471848      0.89802009      0.26473491
C       2.71387951      0.15943900     -0.45731060
O       2.53947106     -0.24015748     -1.59844938
C       3.95833158     -0.08560238      0.32067817
C       4.09750145      0.30587217      1.65937108
C       5.28844157      0.05184137      2.34433149
C       6.34280835     -0.59360414      1.69884849
C       6.21044982     -0.98910277      0.36848950
C       5.02166985     -0.73730723     -0.31941338
H      -4.13061571      3.63770385     -0.45311425
H      -2.54182437      3.79106401     -1.18635428
H      -3.89120201      3.12712154     -2.13951950
H      -4.01108652      1.18150201     -0.56612567
H      -2.54124153      0.97238715      1.04163562
H      -1.31531784      1.75926311     -1.89734494
H      -2.62155560      0.79706137     -2.56019001
H      -2.87035699     -1.46680799     -1.97957624
H      -1.59874089     -2.23250055     -1.04687389
H      -4.15317191     -0.94064956     -0.01306861
H      -4.09539727     -3.41410031     -0.41136837
H      -4.29146468     -3.01301650      1.31036318
H      -2.72548276     -3.54451535      0.71815935
H      -1.72892088     -1.30926582      1.39867275
H       0.07653558      1.91708778      0.15102314
H       0.73283542      1.41084824     -1.41782096
H       3.28541091      0.80368683      2.18352201
H       5.39149415      0.35529109      3.38336568
H       7.26793084     -0.79164293      2.23480595
H       7.03108381     -1.49552745     -0.13353316
H       4.92657048     -1.05267316     -1.35673509
