23
O=c1c2ccccc2sc2ccccc12
O       0.01237616      1.80308495      1.64016215
C       0.00612747      0.89271222      0.81204566
C      -1.29405033      0.40936869      0.29216095
C      -2.46243206      1.02479587      0.77947218
C      -3.72125089      0.62199871      0.33539151
C      -3.82473903     -0.39973950     -0.60000845
C      -2.66932464     -1.01395609     -1.08702281
C      -1.39416952     -0.61738965     -0.64759101
S      -0.01013577     -1.47670848     -1.34328598
C       1.38503584     -0.71341250     -0.56300077
C       2.65414395     -1.19788065     -0.92499674
C       3.81743945     -0.66377593     -0.36740950
C       3.72802256      0.36462986      0.56211597
C       2.47532858      0.85419494      0.92976011
C       1.29905514      0.31977436      0.37108799
H      -2.39416484      1.82701472      1.51308785
H      -4.61505297      1.10651742      0.72064735
H      -4.80199996     -0.72079022     -0.95236022
H      -2.77501135     -1.81265236     -1.81975387
H       2.74881920     -2.00350032     -1.65162837
H       4.78983002     -1.05219883     -0.66040881
H       4.62805026      0.78716943      1.00197192
H       2.41810274      1.66074335      1.65956289
