41
CCCCCCCC[Si](OC)(OC)OC
C      -5.04840969     -1.48612613     -1.37542981
C      -4.18688618     -1.14735548     -0.16936567
C      -3.43566564      0.16949542     -0.36959171
C      -2.56783516      0.50164324      0.84589801
C      -1.86935332      1.86076589      0.74207573
C      -0.91402386      2.02936879     -0.44395691
C       0.19672536      0.98007131     -0.55649208
C       1.12757074      0.95225047      0.65997201
Si      2.60719985     -0.23401485      0.51491054
O       2.07715961     -1.81100535      0.38610980
C       1.98732574     -2.40240417     -0.89951825
O       3.53827160      0.13363337     -0.82146046
C       4.21946707      1.37753817     -0.85268726
O       3.57215832     -0.11133622      1.87111198
C       4.54210143     -1.12050640      2.10155851
H      -4.43684344     -1.59182184     -2.27718445
H      -5.57659381     -2.43046485     -1.21066971
H      -5.79502185     -0.70612901     -1.55569595
H      -3.47240401     -1.96091065      0.00218045
H      -4.82413340     -1.08169271      0.72016854
H      -2.81238425      0.09251476     -1.26751239
H      -4.15424168      0.98006712     -0.54080992
H      -3.19935921      0.51363673      1.74327214
H      -1.82785406     -0.29143859      1.00291207
H      -2.63275004      2.64688073      0.68188957
H      -1.32434509      2.04485218      1.67559568
H      -1.49046323      2.02835138     -1.37674912
H      -0.45554983      3.02421122     -0.37722089
H      -0.24272043     -0.01081530     -0.72069168
H       0.78030202      1.20478437     -1.45896383
H       0.56899314      0.65695413      1.55459221
H       1.52178948      1.95837997      0.84355030
H       2.98013260     -2.52678406     -1.34626202
H       1.33978795     -1.82412847     -1.56797992
H       1.54616947     -3.39746905     -0.78446731
H       3.51781445      2.21852301     -0.82136302
H       4.94519961      1.45766565     -0.03562130
H       4.77081963      1.43754653     -1.79631379
H       4.06888328     -2.08920289      2.29750202
H       5.24416348     -1.20301409      1.26391395
H       5.11480336     -0.84251434      2.99195309
