31
CCCNc1nc(Cl)nc(NC(C)C)n1
C       4.60270281     -1.37827752      1.46062720
C       4.62298502     -0.03126921      0.75134468
C       3.44086046      0.16411271     -0.20042024
N       2.20875755      0.33912229      0.55096956
C       1.06295334      0.48916643     -0.22112771
N       1.11985727      1.08967856     -1.39486800
C      -0.05389650      1.17202751     -1.99912982
Cl     -0.05717123      1.94408171     -3.52464446
N      -1.22559640      0.73110305     -1.57209300
C      -1.16677864      0.13915065     -0.39455732
N      -2.30706909     -0.39634915      0.18875546
C      -3.57485411      0.26146231     -0.11013533
C      -4.49495363      0.13008609      1.10590251
C      -4.23096418     -0.39686653     -1.32376860
N      -0.05076409     -0.00035167      0.31279324
H       3.73670644     -1.47173984      2.12246479
H       5.50320077     -1.49383458      2.07236872
H       4.57627739     -2.20115244      0.73923838
H       4.64601631      0.77183375      1.49752499
H       5.55207873      0.03919202      0.17325790
H       3.36490472     -0.69364746     -0.88042786
H       3.64142079      1.05825998     -0.80371521
H       1.99959383     -0.38475441      1.23024861
H      -2.09052856     -0.51555757      1.17337401
H      -3.43411410      1.33341629     -0.30063775
H      -4.04802951      0.60971955      1.98382863
H      -5.46225614      0.60748981      0.91738581
H      -4.67564704     -0.92064894      1.35952192
H      -5.20240228      0.06193785     -1.53645833
H      -4.39073280     -1.46816720     -1.15656251
H      -3.61255710     -0.29488753     -2.22106027
