34
O=C(Cc1ccc(-c2ccccc2)cc1)OCCF
O       2.96016036      0.98414170     -0.33735624
C       3.25748260     -0.20044588     -0.39717700
C       2.30136264     -1.37130028     -0.47407368
C       0.84619058     -0.98840108     -0.35065129
C       0.21900657     -0.96873667      0.90047195
C      -1.12647553     -0.60388995      1.01378150
C      -1.87822169     -0.24255367     -0.11495500
C      -3.29317441      0.14439856      0.00741382
C      -3.75497625      1.36973822     -0.50153176
C      -5.09804571      1.73840620     -0.38553066
C      -6.00326892      0.88599873      0.24141327
C      -5.56668442     -0.33343164      0.75281286
C      -4.22295882     -0.69993075      0.63699600
C      -1.23699971     -0.25685969     -1.36334194
C       0.10766772     -0.62282569     -1.48191378
O       4.54135586     -0.66805445     -0.41283984
C       5.56651285      0.34121801     -0.34649178
C       5.74703068      0.86201142      1.07113973
F       6.30465982     -0.12199706      1.83270636
H       2.55466491     -2.07862712      0.32504390
H       2.46075891     -1.88447773     -1.43000107
H       0.77072010     -1.23120175      1.80050431
H      -1.58445139     -0.58701360      2.00091727
H      -3.06122406      2.05551460     -0.98404776
H      -5.43393069      2.69270235     -0.78253742
H      -7.04776630      1.17205729      0.33183185
H      -6.27067450     -1.00246718      1.24053403
H      -3.90445090     -1.66177242      1.03378403
H      -1.78857119      0.01303665     -2.26183991
H       0.57070250     -0.61564855     -2.46611974
H       5.33637243      1.15495668     -1.04372087
H       6.49299927     -0.13328328     -0.68526046
H       6.43113968      1.71463053      1.08692069
H       4.80308704      1.14410747      1.54311862
