32
CCOC(=O)CCCCC(=O)OCC
C      -5.95971162     -1.34434646      0.69492480
C      -4.87465207     -0.28899040      0.60646643
O      -3.60571794     -0.93907375      0.74628717
C      -2.53553407     -0.09705834      0.67893031
O      -2.60349970      1.11389086      0.52376203
C      -1.26031197     -0.89035449      0.85161451
C      -0.00146389     -0.07836870      0.54389796
C       0.17686865      0.17754322     -0.95865157
C       1.43564062      0.98978719     -1.26601764
C       2.71110720      0.19854041     -1.08450939
O       2.77817266     -1.01432732     -0.94593891
O       3.77770371      1.04697174     -1.12036412
C       5.06783540      0.43575084     -0.97389556
C       5.41513102      0.29182575      0.49597906
H      -5.90724875     -1.87181265      1.65311581
H      -5.83058191     -2.09671967     -0.09016495
H      -6.95111381     -0.89417090      0.59324548
H      -5.00501149      0.44387137      1.41057818
H      -4.92706911      0.21485867     -0.36518784
H      -1.29907918     -1.77490857      0.20617975
H      -1.22452413     -1.22131060      1.89577063
H       0.86375461     -0.63356756      0.92416346
H      -0.02687485      0.87694265      1.08202611
H      -0.68836344      0.73235004     -1.33934097
H       0.20281429     -0.77785048     -1.49660184
H       1.40389383      1.31676066     -2.31150360
H       1.47010373      1.87703224     -0.62395378
H       5.11354629     -0.52804164     -1.49381799
H       5.79214973      1.09756792     -1.45994449
H       4.70439104     -0.36658107      1.00535077
H       5.36644565      1.26302916      0.99930016
H       6.42119954     -0.11915992      0.61830001
