20
CCCCC(=O)OC
C      -3.39663532      0.49614161     -0.35625411
C      -2.19153068     -0.31452879      0.09321695
C      -0.88465616      0.30399334     -0.40102003
C       0.32381321     -0.51307565      0.05241577
C       1.62411771      0.08693836     -0.42924175
O       1.73370692      1.10184057     -1.10192925
O       2.66400722     -0.68197831      0.00409319
C       3.94729096     -0.20138574     -0.39813065
H      -4.32035477      0.03589346      0.00819759
H      -3.34950732      1.51803372      0.03343122
H      -3.45021470      0.54670231     -1.44845949
H      -2.18545608     -0.37279441      1.18787178
H      -2.28561267     -1.33879850     -0.28588923
H      -0.89690785      0.36830784     -1.49632321
H      -0.79702566      1.33166422     -0.02660232
H       0.35205901     -0.55540760      1.14698379
H       0.25077940     -1.53225513     -0.34332148
H       4.70406727     -0.88413926     -0.00203317
H       4.02790473     -0.19068801     -1.48961782
H       4.13015478      0.79553597      0.01498592
