46
CCN(CC)C(C)CN1c2ccccc2Sc2ccccc21
C       2.99977836     -1.67685625      1.27077844
C       2.91650697     -1.57166595     -0.24603963
N       2.34095581     -0.33617399     -0.78716639
C       3.04083221      0.90235127     -0.43739709
C       4.50311200      0.91842050     -0.87265166
C       0.85558012     -0.27254820     -0.70579871
C       0.36507244      0.30854804     -2.04304143
C       0.26221274      0.51934161      0.50691622
N      -1.21744444      0.38867968      0.64979699
C      -1.70499754     -0.92025195      0.90879868
C      -1.07864232     -1.74959316      1.86024513
C      -1.54290617     -3.03923183      2.13579386
C      -2.65953750     -3.52924008      1.47373407
C      -3.31633806     -2.72220018      0.54870482
C      -2.85665594     -1.42302924      0.27212351
S      -3.76814852     -0.49149000     -0.94272708
C      -3.18272765      1.16335082     -0.63424644
C      -3.94184893      2.21405613     -1.17784820
C      -3.55750090      3.53968031     -0.99587064
C      -2.41646688      3.82461904     -0.25952507
C      -1.65450577      2.78277512      0.27822353
C      -1.99928320      1.42985294      0.08287531
H       3.59654465     -0.86997492      1.70560852
H       2.01003375     -1.66738919      1.73005156
H       3.47770274     -2.62246516      1.54857018
H       2.35686853     -2.43475108     -0.62906479
H       3.92362703     -1.70683231     -0.65798260
H       2.55871131      1.74799791     -0.94186359
H       2.98484798      1.10479459      0.63816511
H       4.92826639      1.91467829     -0.71096717
H       5.10734211      0.20886395     -0.29939631
H       4.60126994      0.68192122     -1.93735011
H       0.47158567     -1.29961861     -0.67794570
H      -0.71150637      0.16222923     -2.16477121
H       0.57402924      1.38009525     -2.12674950
H       0.84390687     -0.19712964     -2.88998035
H       0.56323654      1.56684643      0.40966273
H       0.74279839      0.19775684      1.43604725
H      -0.23328735     -1.38888335      2.43735813
H      -1.03629123     -3.65142428      2.87742953
H      -3.02735107     -4.53000757      1.68311624
H      -4.19664134     -3.11170980      0.04177037
H      -4.84458012      2.00109956     -1.74642850
H      -4.15528268      4.34386784     -1.41607115
H      -2.12150921      4.85673816     -0.08860437
H      -0.80136861      3.05390201      0.89371752
