36
O=C(OCC(=O)N(CCO)CCO)c1ccccc1
O       1.32997639     -0.98608704      0.95693318
C       1.74350912      0.09505347      0.56442728
O       0.99271793      1.21635045      0.41140244
C      -0.40205470      1.00778378      0.65144919
C      -1.07906351      0.23595630     -0.49247315
O      -0.51851516      0.10231209     -1.58453346
N      -2.34246722     -0.30678510     -0.26970123
C      -3.17617317     -0.05126084      0.91509494
C      -4.20800233      1.05266288      0.66545386
O      -3.55975939      2.27094753      0.31109416
C      -2.93474787     -1.12063126     -1.34177337
C      -2.30045060     -2.51175474     -1.43563135
O      -2.47271540     -3.21551832     -0.20630659
C       3.16519999      0.35816051      0.21440212
C       4.09860968     -0.66676880      0.42242487
C       5.44498195     -0.46740808      0.11057116
C       5.86557815      0.75476222     -0.41205455
C       4.94275947      1.77834583     -0.62562345
C       3.59475237      1.58293159     -0.31462969
H      -0.52604245      0.49746473      1.61091212
H      -0.86931320      1.99427530      0.72089832
H      -2.54806117      0.24430910      1.75664059
H      -3.67557814     -0.98524294      1.19467099
H      -4.90364923      0.78598789     -0.13645730
H      -4.78995729      1.23166417      1.57457693
H      -3.20820940      2.14514042     -0.58955752
H      -4.00903388     -1.22023180     -1.15127119
H      -2.81146600     -0.59397122     -2.29477143
H      -2.78945751     -3.09043908     -2.22508700
H      -1.23052940     -2.46591443     -1.66119661
H      -1.84319980     -2.80907318      0.41782324
H       3.77972650     -1.62558738      0.82679798
H       6.16390419     -1.26659937      0.27335687
H       6.91381631      0.90874205     -0.65678662
H       5.27193985      2.72905111     -1.03806612
H       2.89097492      2.39137217     -0.49598838
