74
CCCCCCCCCCCCCCCCOC(=O)C(CC)CCCC
C      12.05254214     -0.19702073     -0.83523727
C      11.33684832     -0.64098885      0.43146274
C       9.83846756     -0.88155408      0.23526412
C       9.06168666      0.38718012     -0.12544977
C       7.55607109      0.11445974     -0.19413836
C       6.78053777      1.38120922     -0.56388995
C       5.27733162      1.14413037     -0.74473633
C       4.55301260      0.82454805      0.56609286
C       3.05848251      0.53468226      0.38295806
C       2.25061189      1.75322703     -0.07201361
C       0.75684577      1.45502571     -0.24501322
C       0.03682560      1.17421523      1.07676418
C      -1.48568260      1.08893795      0.92658807
C      -1.94715188     -0.11852229      0.10780118
C      -3.47195242     -0.19393668      0.04675380
C      -3.94361294     -1.39355740     -0.76979541
O      -5.37452395     -1.37147506     -0.88616687
C      -6.06469013     -1.95028806      0.13413348
O      -5.56048499     -2.49305494      1.10851650
C      -7.56558437     -1.83460870     -0.07946962
C      -8.00107492     -2.61316751     -1.33244198
C      -7.75903470     -4.11199359     -1.20805126
C      -8.00020080     -0.35916022     -0.17436494
C      -7.75221806      0.41243026      1.12804245
C      -8.10712536      1.89849410      1.02923290
C      -9.58795530      2.15890473      0.79915092
H      11.87967526     -0.90342923     -1.65365061
H      13.13141866     -0.14235804     -0.65701122
H      11.72018132      0.79487207     -1.15624861
H      11.49520525      0.10457862      1.21971961
H      11.79538482     -1.57398137      0.78162256
H       9.43443565     -1.29801750      1.16670342
H       9.68684162     -1.64068615     -0.54213430
H       9.40139773      0.77166047     -1.09407788
H       9.25921843      1.16488877      0.62255921
H       7.21760944     -0.26639624      0.77556834
H       7.35889193     -0.66698914     -0.93794685
H       6.94378717      2.15429621      0.19659395
H       7.17813645      1.77744127     -1.50682891
H       4.85095642      2.05296946     -1.18408975
H       5.11582727      0.33575837     -1.46802746
H       5.00433244     -0.06003603      1.02912753
H       4.68337026      1.65316904      1.27267149
H       2.92958722     -0.28483423     -0.33488621
H       2.67126630      0.17716628      1.34415206
H       2.62935142      2.10471575     -1.03849128
H       2.38389480      2.57695348      0.63988043
H       0.29073026      2.32265714     -0.72740630
H       0.63734549      0.60855980     -0.93010947
H       0.26540846      1.97920843      1.78615910
H       0.40588341      0.24365269      1.52196262
H      -1.86284945      2.01250785      0.47156469
H      -1.92636227      1.02972509      1.92936148
H      -1.55124233     -1.03855959      0.55384082
H      -1.55216619     -0.05518805     -0.91206413
H      -3.87938006      0.72555560     -0.39216936
H      -3.88681620     -0.25095143      1.06050093
H      -3.59625873     -2.34161848     -0.34223191
H      -3.54436115     -1.33632111     -1.78825964
H      -8.05446282     -2.28167442      0.79625644
H      -9.07233143     -2.45324230     -1.50503649
H      -7.47762550     -2.24047194     -2.22123122
H      -8.14102484     -4.62964968     -2.09402684
H      -8.27186854     -4.52034468     -0.33127212
H      -6.69244205     -4.34027545     -1.12199253
H      -7.47741392      0.14099647     -0.99927652
H      -9.07006140     -0.32652898     -0.41158708
H      -6.69363731      0.33970667      1.40422544
H      -8.32397580     -0.04795037      1.94329440
H      -7.80945134      2.38819435      1.96423382
H      -7.52513235      2.36802989      0.22762311
H      -9.79247014      3.23355845      0.84919802
H      -9.90820089      1.80859579     -0.18637783
H     -10.19857390      1.66196979      1.55974635
