23
COC(C)(C)CC(C)=O
C      -1.62872455      0.62213290     -1.60276365
O      -0.56020456      0.79100689     -0.68194770
C      -0.46572136     -0.15849867      0.39299825
C      -1.66403029      0.00331952      1.34433544
C      -0.39416832     -1.60696221     -0.11254700
C       0.80727738      0.21287082      1.17766391
C       2.08792546     -0.05005821      0.41096951
C       2.46092183      0.90076331     -0.69553447
O       2.78772431     -1.03225461      0.66729780
H      -1.53166817     -0.31749590     -2.15231869
H      -1.57547035      1.43867187     -2.32875154
H      -2.60016563      0.67916230     -1.10664094
H      -2.60141003     -0.30837628      0.87199923
H      -1.54014001     -0.59875252      2.25110600
H      -1.79064115      1.05205056      1.63603874
H       0.34111134     -1.71321870     -0.91739111
H      -0.13490440     -2.29907425      0.69584559
H      -1.35516586     -1.93300904     -0.52576971
H       0.86636002     -0.35786477      2.11326106
H       0.80291158      1.27461459      1.45419751
H       3.53574605      0.83114818     -0.88584591
H       2.23475400      1.92818999     -0.39958218
H       1.91768270      0.64163424     -1.60662015
