12
COS(C)(=O)=O
C      -1.91022725      0.61034216      0.12075521
O      -0.49874599      0.69090028      0.06069458
S       0.31279298     -0.70515395     -0.15173873
C       1.94933020     -0.01568996     -0.14785739
O       0.14778577     -1.51974099      1.03323958
O       0.02330480     -1.21013775     -1.47693363
H      -2.30992778      1.61755828      0.26480545
H      -2.22285992     -0.01333890      0.96327781
H      -2.31095774      0.20577141     -0.81321424
H       2.66141459     -0.83225599     -0.28388452
H       2.03485116      0.69578964     -0.97126975
H       2.12323920      0.47595577      0.81108243
