19
O=C(O)C1=CCCCC1
O       3.13020271     -0.77027941      0.29922666
C       2.39500343      0.17334633      0.06706939
O       2.89679456      1.39682037     -0.16953717
C       0.91534375      0.11360817      0.01359583
C       0.16535333      1.19343835     -0.27842472
C      -1.33296340      1.16007655     -0.36280844
C      -1.90533065     -0.25751988     -0.39920137
C      -1.19618763     -1.16319342      0.60151664
C       0.30765596     -1.23084032      0.31875748
H       3.86417381      1.26415449     -0.09870675
H       0.63154691      2.15713462     -0.47200406
H      -1.73828188      1.70021404      0.50116164
H      -1.65895368      1.69913254     -1.25961078
H      -1.79264270     -0.67353871     -1.40860375
H      -2.97983202     -0.22741058     -0.18620795
H      -1.36257587     -0.78348299      1.61778903
H      -1.62321806     -2.17178045      0.56488630
H       0.48499229     -1.89493921     -0.53659606
H       0.79891914     -1.68494051      1.18769807
