51
COc1cc2nc(N3CCN(C(=O)c4ccco4)CC3)nc(N)c2cc1OC.Cl
C      -4.14815621     -0.19431052      3.75075123
O      -4.77527253     -0.62592848      2.56179363
C      -4.06027155     -0.55673118      1.38333619
C      -2.76906107     -0.08505981      1.33639917
C      -2.08171657     -0.02712162      0.14954181
N      -0.82797766      0.42111871      0.04032727
C      -0.13352423      0.48928711     -1.10582561
N       1.20223698      0.97641347     -1.16775281
C       1.85391342      1.01280166     -2.43597158
C       3.34172240      0.77644949     -2.40463064
N       3.82507159      0.92083849     -1.00122207
C       4.81988136      0.06528661     -0.59288078
O       5.29051204     -0.75723048     -1.48913812
C       5.41110038     -0.03738869      0.71562078
C       5.16241721      0.56830677      1.91038531
C       6.08438175      0.05220873      2.82304639
C       6.85031853     -0.84572765      2.13619254
O       6.44709156     -0.88786251      0.91034418
C       3.15812580      1.98635958     -0.30170743
C       1.80182512      1.40520433      0.08713874
N      -0.78156849      0.06278486     -2.22351846
C      -2.03968757     -0.40398298     -2.21625885
N      -2.71227448     -0.84785182     -3.38352920
C      -2.70797653     -0.45446688     -1.02210456
C      -3.99725678     -0.92147627     -0.95125523
C      -4.70618006     -0.98970137      0.22125223
O      -6.00072331     -1.45626277      0.30378605
C      -6.70515932     -1.90730951     -0.83519566
Cl      0.68888144      0.00000000      0.00000000
H      -3.68414632      0.78718248      3.62116425
H      -3.37116469     -0.91361972      4.08945271
H      -4.92348081     -0.18777732      4.55975083
H      -2.28936302      0.24141502      2.22922670
H       1.36348518      0.29554812     -3.12111429
H       1.69447055      2.02948949     -2.89557300
H       3.55173868     -0.25740411     -2.69429994
H       3.93881173      1.45753469     -3.01555402
H       4.41371794      1.28088665      2.14253998
H       6.14670418      0.33649436      3.86867959
H       7.65665504     -1.40100638      2.61559533
H       2.97440498      2.84669354     -1.02905566
H       3.72141168      2.40244822      0.50081258
H       1.20734033      2.16875122      0.58972153
H       1.99481532      0.49461272      0.67199822
H      -3.17735793     -0.13207862     -3.97685677
H      -2.76896736     -1.84142240     -3.68176042
H      -4.50192737     -1.26136337     -1.86783141
H      -6.40186290     -2.94331995     -1.11831901
H      -7.81406532     -1.89008732     -0.65236296
H      -6.53301168     -1.25162459     -1.70742213
H      -0.68888144      0.00000000      0.00000000
