48
C=CC1CN2CCC1C[C@H]2[C@H](O)c1ccnc2ccc(OC)cc12
C      -5.99695712     -0.55070167     -1.17022203
C      -5.02276976      0.22754555     -0.68100977
C      -3.57211626     -0.18990672     -0.59536560
C      -2.63671355      0.79935802     -1.33703198
N      -1.49582298      1.23650565     -0.49263225
C      -2.05491749      1.96723700      0.66872439
C      -2.96770867      1.07158621      1.51891095
C      -3.08008157     -0.31774437      0.86786125
C      -1.65795805     -0.90719788      0.80566568
C      -0.72674963      0.05266175      0.02053063
C       0.11942357     -0.65684112     -1.08938445
O      -0.68409348     -1.53513130     -1.89030086
C       1.29750243     -1.42960042     -0.50692264
C       1.16047202     -2.79929210     -0.24155007
C       2.23062931     -3.48882964      0.28944667
N       3.41590297     -2.92046072      0.57802407
C       3.56116233     -1.60749446      0.34537177
C       4.78270819     -1.02906118      0.65747658
C       5.03516500      0.33244911      0.46259910
C       4.04041190      1.14701868     -0.05718702
O       4.13913086      2.48858647     -0.29677483
C       5.37835500      3.11034783      0.02086761
C       2.80318083      0.58225796     -0.37990110
C       2.53464906     -0.79774860     -0.19353092
H      -7.02271050     -0.19714869     -1.21132121
H      -5.79764921     -1.55245249     -1.53845234
H      -5.28128845      1.22428572     -0.32921272
H      -3.46549055     -1.17452881     -1.07255807
H      -3.18401875      1.68929236     -1.67659606
H      -2.26668159      0.34331558     -2.26211485
H      -1.24015613      2.36630841      1.28581136
H      -2.61111077      2.84701453      0.32093061
H      -2.55242341      0.97399260      2.52952928
H      -3.95507769      1.53350919      1.62676404
H      -3.73617281     -0.96958136      1.45554365
H      -1.26950526     -1.03785044      1.82363814
H      -1.70094761     -1.90519415      0.35709289
H      -0.00249384      0.46484113      0.73766921
H       0.50223670      0.09605047     -1.78799241
H      -0.11829075     -1.81368650     -2.63131653
H       0.23257764     -3.32642370     -0.44261761
H       2.16111308     -4.55125050      0.50495835
H       5.56745546     -1.66007246      1.06991506
H       6.01438751      0.71354592      0.73091312
H       5.59570789      3.03303513      1.09131741
H       5.29199581      4.17299573     -0.22554711
H       6.19388445      2.69415377     -0.57976247
H       2.04185386      1.25030454     -0.77715143
