19
CC(=O)Nc1ccc(I)cc1
C       3.47794666     -0.00535072      0.69156569
C       2.08279175     -0.57908093      0.66735869
O       1.87566417     -1.73574649      1.01546004
N       1.14386819      0.34755935      0.25075344
C      -0.24666120      0.15857752      0.11319731
C      -0.90196813     -1.04575885      0.37749480
C      -2.28866820     -1.15271006      0.21523320
C      -3.02619404     -0.05205033     -0.21362467
I      -5.08294580     -0.21157725     -0.45407374
C      -2.38697435      1.15554281     -0.48184204
C      -1.00154806      1.25787569     -0.31837219
H       3.63105441      0.53487486      1.62942857
H       3.63782455      0.67055293     -0.15345464
H       4.20619276     -0.81815156      0.61717350
H       1.48864929      1.27186081      0.02477260
H      -0.36396259     -1.92726907      0.71264704
H      -2.77110218     -2.10328835      0.42897467
H      -2.94880339      2.02333891     -0.81740716
H      -0.52516386      2.21080071     -0.53397094
