43
COc1ccc2c(c1O)C13CCN(C)C(C2)C1C=CC(=O)C3
C       5.27822440     -0.02141210      0.24559304
O       4.03665374      0.27146765      0.87609304
C       2.90072022      0.02511137      0.14429910
C       2.85508577     -0.54737492     -1.11898768
C       1.61982223     -0.77745148     -1.72212051
C       0.41731644     -0.41866366     -1.08411971
C       0.44041092      0.22828013      0.17298825
C       1.69839496      0.38830198      0.77924573
O       1.79058578      0.87610265      2.05704419
C      -0.88789878      0.64820486      0.85032404
C      -1.30005436     -0.48502742      1.82181224
C      -1.60760369     -1.79853855      1.08811094
N      -2.54700711     -1.60479282     -0.02378597
C      -2.84938479     -2.87327055     -0.68054527
C      -2.15585145     -0.53176500     -0.97179164
C      -0.87228878     -0.75394404     -1.79862437
C      -2.04160910      0.79338221     -0.19287061
C      -1.88569728      2.02394232     -1.06689575
C      -1.17259102      3.09671721     -0.69803281
C      -0.55447818      3.14849054      0.65157088
O       0.07645349      4.15001642      0.98215058
C      -0.83219910      2.00151304      1.60133786
H       5.37320471     -1.09316260      0.04268315
H       6.07804258      0.25814103      0.93807499
H       5.40718975      0.56860302     -0.66785010
H       3.75046569     -0.84662448     -1.65177685
H       1.59392180     -1.25345937     -2.70111161
H       2.74865426      0.94505945      2.23867973
H      -2.19582586     -0.18140354      2.38101572
H      -0.51864249     -0.66622264      2.57033181
H      -2.04755629     -2.49071979      1.81722915
H      -0.67844145     -2.26844402      0.74361393
H      -3.56950627     -2.72988879     -1.49349910
H      -1.95866271     -3.36276521     -1.08743077
H      -3.31663427     -3.56492205      0.02958382
H      -2.98702007     -0.43246319     -1.68416531
H      -0.82833567     -1.78502269     -2.16656818
H      -0.92188856     -0.11790474     -2.69311271
H      -2.99473979      0.94295672      0.33955378
H      -2.38854951      2.03136662     -2.03065720
H      -1.05267896      3.97225026     -1.32382887
H      -0.10012503      2.02184033      2.40967664
H      -1.79987617      2.21349583      2.07676242
