45
O=C(Nc1ccccc1)C1=Cc2ccccc2/C(=N\Nc2cc(Cl)ccc2Cl)C1=O
O       3.19905465      0.58237807      1.45400186
C       2.63999760      0.02262061      0.51480037
N       3.10688385     -0.05206614     -0.78001134
C       4.29163468      0.50043244     -1.30878804
C       4.55370989      0.26077694     -2.66455190
C       5.70387759      0.77186464     -3.27132377
C       6.60401037      1.52918627     -2.52744272
C       6.35189194      1.77393264     -1.17965290
C       5.20011589      1.26210724     -0.57220709
C       1.32673071     -0.66329963      0.73858458
C       0.86171798     -0.77294582      1.99599688
C      -0.36824689     -1.50339846      2.32418735
C      -0.63583423     -1.83679602      3.65826880
C      -1.78118260     -2.56307813      3.98795241
C      -2.66327727     -2.96659077      2.98850367
C      -2.41238709     -2.63120045      1.65724991
C      -1.27934050     -1.88109423      1.32445984
C      -0.95843196     -1.46515053     -0.06332478
N      -1.76286178     -1.19090507     -1.05307235
N      -3.10298694     -1.24874856     -0.83060495
C      -3.81521230     -0.00828261     -0.81489505
C      -3.18247646      1.19903287     -0.48023636
C      -3.91587152      2.38300995     -0.38559049
Cl     -3.11396061      3.85289879      0.01210734
C      -5.29236872      2.38622627     -0.60005210
C      -5.94523761      1.19236615     -0.90444796
C      -5.21375366      0.00473068     -0.99890141
Cl     -6.06949742     -1.45477464     -1.36262485
C       0.52279891     -1.26167055     -0.34872677
O       1.00172771     -1.55329275     -1.43715992
H       2.54447762     -0.58803826     -1.44304110
H       3.86534622     -0.32744663     -3.26706981
H       5.89439755      0.57805484     -4.32356698
H       7.49957273      1.92884921     -2.99556933
H       7.05087304      2.36567410     -0.59395438
H       5.04397497      1.47987532      0.47915490
H       1.42525468     -0.35764450      2.82994811
H       0.04795461     -1.54586830      4.45372718
H      -1.98020873     -2.82269243      5.02541869
H      -3.54895396     -3.54378917      3.24484371
H      -3.10576270     -2.97346358      0.89527301
H      -3.59448688     -1.86242649     -1.49237330
H      -2.11242676      1.22265522     -0.29935247
H      -5.86037314      3.30996564     -0.52449710
H      -7.02086345      1.19196219     -1.06143939
