22
Clc1ccc2c(c1)Oc1cc(Cl)ccc1O2
Cl     -4.82685608      1.87042055     -1.05756177
C      -3.44920469      0.92763115     -0.64023725
C      -3.61235144     -0.41157159     -0.27994756
C      -2.49697722     -1.18038511      0.05948683
C      -1.22816175     -0.60277818      0.03552438
C      -1.07213590      0.73598602     -0.32542174
C      -2.18199299      1.50771750     -0.66507198
O       0.15729914      1.34465815     -0.36247011
C       1.22252261      0.54958296     -0.02112155
C       2.49034180      1.12816495     -0.04546867
C       3.59925592      0.35505655      0.29446849
Cl      5.16947200      1.05837791      0.26806574
C       3.44895679     -0.98518897      0.65646607
C       2.17640044     -1.56002113      0.67923332
C       1.06533929     -0.78908662      0.33967362
O      -0.16351604     -1.39780110      0.37679364
H      -4.60234308     -0.86020259     -0.26183200
H      -2.61745823     -2.22302435      0.34070975
H      -2.05459696      2.54912165     -0.94518817
H       2.60670056      2.17046670     -0.32704630
H       4.31633661     -1.58470072      0.92088949
H       2.05296922     -2.60242372      0.96005573
