55
CN(C)[C@@H]1C(O)=C(C(N)=O)C(=O)[C@@]2(O)C(O)=C3C(=O)c4c(O)ccc(Cl)c4[C@@H](O)[C@H]3C[C@@H]12.Cl
C      -2.28498650     -2.81802089     -0.22776769
N      -3.08875216     -1.67671261      0.00178914
C      -4.29498904     -1.92824914      0.72520476
C      -2.46203513     -0.43429374      0.31091362
C      -3.45105036      0.61856450      0.07152443
O      -4.84688004      0.29484718     -0.00961075
C      -3.09372447      1.87510366     -0.07420150
C      -4.12435260      2.87612358     -0.30537033
N      -3.76329719      4.22871993     -0.46272455
O      -5.31873749      2.54073884     -0.36400781
C      -1.68082521      2.20260665     -0.01450451
O      -1.31496379      3.23999624      0.53481557
C      -0.76784642      1.18994504     -0.66358952
O      -0.83009540      1.38712043     -2.07834191
C       0.59586064      1.62991069     -0.30723749
O       0.86706123      3.00127378     -0.05918491
C       1.59960672      0.77621678     -0.20766585
C       2.93949662      1.21390510      0.14146250
O       3.13021509      2.45291610      0.24974324
C       3.96285752      0.20841767      0.34157026
C       5.24148787      0.60393454      0.68604234
O       5.65471760      1.87772809      0.85151549
C       6.19322537     -0.39752198      0.88104274
C       5.86142589     -1.70469799      0.73438010
C       4.58905252     -2.05751666      0.39334863
Cl      4.24384054     -3.77017601      0.22433540
C       3.59175214     -1.10570727      0.18433118
C       2.27916540     -1.61820232     -0.18125766
O       1.80764651     -2.50998313      0.80400767
C       1.21568014     -0.64052802     -0.46192477
C      -0.00063261     -0.81499226      0.46593490
C      -1.15570800     -0.19988777     -0.30298335
Cl      0.68915173      0.00000000      0.00000000
H      -1.50012498     -2.75063399     -0.97713346
H      -1.99502372     -3.26159882      0.74747023
H      -2.99390935     -3.60189915     -0.64918012
H      -4.18588097     -2.97613029      1.14296894
H      -4.38996763     -1.29451482      1.62218613
H      -5.21104072     -1.98519567      0.11139329
H      -2.28264599     -0.48492120      1.44404690
H      -5.20746993      0.28043714     -0.96986838
H      -4.04575257      4.94241097      0.26982360
H      -3.21528745      4.57750260     -1.28655488
H       0.04957779      1.33360509     -2.49319891
H       1.07921246      3.62085046     -0.82609836
H       5.21021543      2.72905460      0.77740996
H       7.20001799     -0.09558382      1.15234213
H       6.62085143     -2.46510307      0.89288638
H       2.43467935     -2.26228492     -1.09989240
H       1.34092948     -3.26622844      0.36708561
H       0.87399826     -0.69338110     -1.51548157
H       0.16090348     -0.24612984      1.38850116
H      -0.08517679     -1.85501817      0.71448291
H      -1.15232096     -0.78681655     -1.28432276
H      -0.68915173      0.00000000      0.00000000
