38
O=C(O)Cn1ccc2cc3c(Nc4cccc(Br)c4)ncnc3cc21
O       5.30667486      0.44629775      1.82419457
C       5.68072413     -0.21621775      0.87206003
O       6.68249063     -1.11074416      1.03198938
C       5.19549826     -0.17019702     -0.55119634
N       3.96131677      0.58738787     -0.70208683
C       3.89579910      1.88038670     -1.15731660
C       2.57015407      2.24651266     -1.20202020
C       1.80050036      1.13269931     -0.77440961
C       0.42273361      0.90010883     -0.61349972
C      -0.04384336     -0.36337370     -0.15612879
C      -1.40130783     -0.69940349      0.02695349
N      -2.39565066      0.25913039     -0.31559428
C      -3.77223505      0.25310049      0.00450032
C      -4.27527537     -0.33563448      1.17186230
C      -5.63489376     -0.26423159      1.49247872
C      -6.51299583      0.42270276      0.65898066
C      -6.02088040      1.04420601     -0.48439630
Br     -7.20058705      2.00270214     -1.61022382
C      -4.66318147      0.97366352     -0.80583072
N      -1.78127672     -1.90181324      0.49593223
C      -0.81033126     -2.77727623      0.76259390
N       0.50124386     -2.57433091      0.60688164
C       0.87408563     -1.37433465      0.15631792
C       2.23543185     -1.14079545     -0.00246565
C       2.68908462      0.10429997     -0.46819532
H       6.91038134     -1.04208963      1.98466862
H       5.00534575     -1.18430242     -0.91656612
H       5.96108345      0.29953772     -1.17699367
H       4.78993486      2.43959281     -1.40164888
H       2.19458471      3.21355286     -1.51025344
H      -0.27219041      1.70661815     -0.82810443
H      -2.23477685      0.56224216     -1.27057977
H      -3.60911614     -0.85554207      1.85583538
H      -6.00079753     -0.74036196      2.39844609
H      -7.56759779      0.47617691      0.91399485
H      -4.30026279      1.48037493     -1.69562973
H      -1.11542423     -3.74772518      1.13837271
H       2.93555664     -1.93292003      0.24707742
