48
CCCNC(=O)c1nnc2c(-c3cc(C)ccc3OC)cccc2c1N
C       4.85553496     -3.09759124     -1.25839627
C       5.63771782     -1.79188653     -1.26651840
C       4.95894899     -0.70436741     -2.09673624
N       3.68744415     -0.29586823     -1.54314616
C       3.57945773      0.61111530     -0.50511033
O       4.54455137      1.18909572     -0.01181419
C       2.18696506      0.82723242      0.00833486
N       1.26627715     -0.02852446     -0.48649915
N      -0.02828997      0.05944120     -0.05689302
C      -0.42283153      0.99644566      0.82936307
C      -1.77172439      1.08250755      1.22813671
C      -2.78725844      0.14207631      0.70670984
C      -2.80779296     -1.18404283      1.18205685
C      -3.75856926     -2.10701405      0.73073200
C      -3.73441803     -3.52367389      1.22188873
C      -4.68927447     -1.70197620     -0.22762917
C      -4.68587477     -0.39101729     -0.71320617
C      -3.74143007      0.53503756     -0.25659471
O      -3.67277668      1.83993715     -0.67933742
C      -4.46950409      2.20746104     -1.79709893
C      -2.18018223      2.07693039      2.13598697
C      -1.26875176      2.98904335      2.64396751
C       0.06515932      2.90679000      2.25833292
C       0.51958083      1.90989132      1.36226217
C       1.88094979      1.79473778      0.97239885
N       2.84127436      2.74537526      1.41322034
H       3.87454187     -2.97204320     -0.78963726
H       4.70605721     -3.47147047     -2.27630843
H       5.40165323     -3.86019095     -0.69409751
H       6.63438357     -1.98206415     -1.68135681
H       5.77767208     -1.45072221     -0.23425127
H       5.61251850      0.17326153     -2.15146678
H       4.77474478     -1.05345132     -3.11804947
H       2.83992102     -0.78293912     -1.82307457
H      -2.06399960     -1.49841418      1.91292702
H      -4.73696160     -3.96357335      1.19709311
H      -3.06881544     -4.12551974      0.59557374
H      -3.38513967     -3.57120347      2.25869223
H      -5.42699174     -2.40585772     -0.60696675
H      -5.43691189     -0.12508774     -1.44926432
H      -4.21781893      3.23905358     -2.06155021
H      -4.25123546      1.57880470     -2.66684999
H      -5.53442197      2.18034272     -1.54476939
H      -3.22583908      2.14395618      2.43143566
H      -1.59558546      3.76588195      3.33024127
H       0.75194867      3.64918471      2.65784729
H       3.80079892      2.45714283      1.17586215
H       2.76429813      2.98775355      2.39488368
