24
Nc1ccc2ccccc2c1S(=O)(=O)O
N      -2.67425143      1.67025566     -0.82036233
C      -1.43333716      1.28046735     -0.29351017
C      -0.62047567      2.29470845      0.21969629
C       0.68103303      2.03582292      0.64320438
C       1.23849551      0.76044525      0.51803824
C       2.56022548      0.54713208      0.94538182
C       3.16737390     -0.69803304      0.81459955
C       2.45997334     -1.74427832      0.24589988
C       1.14373337     -1.54506878     -0.18128826
C       0.48027785     -0.29364735     -0.04962922
C      -0.86696424     -0.00293113     -0.45138126
S      -1.87329246     -1.31773359     -1.10741109
O      -1.28140237     -1.78138517     -2.34246072
O      -3.27231606     -0.93532266     -1.03988215
O      -1.76317483     -2.51332579     -0.02683230
H      -3.09310680      2.48506893     -0.38276819
H      -3.35405125      0.91171715     -0.93591268
H      -0.99678139      3.31312642      0.29191566
H       1.26609596      2.85746673      1.05265258
H       3.13659144      1.36078089      1.38214618
H       4.19160801     -0.84510672      1.14621354
H       2.92690043     -2.71860446      0.12469401
H       0.65066476     -2.40169131     -0.63652409
H      -2.67381941     -2.71986353      0.27187991
