14
CCC(Br)C(=O)O
C      -1.41231981      0.94314509      0.16587319
C      -0.96845167     -0.50340447      0.33754924
C       0.32067620     -0.80149609     -0.41702559
Br      0.67853748     -2.72637267     -0.36029292
C       1.51968596     -0.12223728      0.20261714
O       2.00377028     -0.32193656      1.30484366
O       2.04000864      0.83481011     -0.59593055
H      -2.36108056      1.11014270      0.68574741
H      -1.55836258      1.18531151     -0.89165156
H      -0.67605166      1.63846988      0.58070675
H      -0.84850917     -0.71207428      1.40814068
H      -1.77438104     -1.15528885     -0.02178902
H       0.24069146     -0.55690232     -1.48070740
H       2.79578648      1.18783323     -0.07922308
