36
CC(=O)CCC1=C(C)CCCC1(C)C
C       4.66706741      0.20684666      0.52949134
C       3.51356212     -0.13160067     -0.37905445
O       3.70733132     -0.60096781     -1.49941640
C       2.12693627      0.13286058      0.17632556
C       1.03047755     -0.19195127     -0.83947748
C      -0.37241692      0.11311912     -0.32113861
C      -0.90002782      1.36312323     -0.38839179
C      -0.17284564      2.58460732     -0.90042677
C      -2.31434053      1.68642033      0.04835388
C      -3.20672514      0.47175856      0.25484281
C      -2.44893049     -0.61858050      0.99152677
C      -1.18768938     -1.08718307      0.21703964
C      -0.37632117     -1.95864886      1.20005044
C      -1.62360459     -1.97316483     -0.97183406
H       4.64435980      1.27282747      0.76883025
H       4.59929101     -0.38727731      1.44410332
H       5.61147986     -0.02229620      0.02807704
H       2.08200535      1.18715800      0.46956396
H       2.01305539     -0.47546372      1.07876282
H       1.10811971     -1.24325502     -1.13914168
H       1.20747713      0.35572594     -1.77408490
H      -0.67659355      2.97397778     -1.79156376
H      -0.17463471      3.36742065     -0.13408540
H       0.86969718      2.40564930     -1.16879670
H      -2.25956287      2.25747461      0.98416295
H      -2.79367171      2.33774979     -0.69288244
H      -4.09523260      0.76285808      0.82708893
H      -3.56763735      0.10201275     -0.71174076
H      -2.16012733     -0.23443131      1.97992518
H      -3.12127116     -1.46583229      1.17734858
H      -0.99686541     -2.76257128      1.61401027
H       0.48215276     -2.43874794      0.71894083
H      -0.00348620     -1.36501636      2.04245427
H      -0.76741614     -2.45454251     -1.45696865
H      -2.29496757     -2.77420391     -0.64123524
H      -2.14864456     -1.39585532     -1.74065975
