40
CN1CC[C@]23c4c5ccc(O)c4O[C@H]2[C@@H](O)C=C[C@H]3[C@H]1C5
C       3.49019571     -1.69248964     -1.02099483
N       2.47459329     -0.64705619     -1.11348010
C       1.38669035     -1.04393661     -2.01498570
C       0.33455731      0.06401784     -2.17369705
C      -0.09198148      0.67329282     -0.82342237
C      -0.82166196     -0.34774239     -0.01439952
C      -0.25458771     -1.29069828      0.82527555
C      -1.12309624     -2.17065989      1.47841090
C      -2.51737206     -2.06038013      1.29749983
C      -3.04599911     -1.04661685      0.49970583
O      -4.39417044     -0.91547828      0.37981996
C      -2.18056784     -0.18049227     -0.12775489
O      -2.52301760      0.93801393     -0.83998152
C      -1.25080523      1.68466476     -0.97068697
C      -1.20857708      2.86672191      0.04295088
O      -2.50684401      3.18481056      0.53847575
C      -0.29058030      2.69983451      1.21975718
C       0.79821892      1.91521512      1.18955858
C       1.15423138      1.11941385     -0.04410775
C       2.00072415     -0.17182189      0.21484518
C       1.22935579     -1.23256979      1.07916482
H       4.30938862     -1.38266343     -0.36302964
H       3.09127851     -2.64357202     -0.65458312
H       3.93531600     -1.87398908     -2.00585006
H       0.90841302     -1.97004840     -1.67316803
H       1.79586629     -1.25983448     -3.01002056
H      -0.52707315     -0.34229113     -2.71917333
H       0.75418455      0.86050889     -2.80306234
H      -0.73315553     -2.93121378      2.15088890
H      -3.18674896     -2.74525884      1.81119944
H      -4.54143038     -0.18404177     -0.24842046
H      -1.26615980      2.11455028     -1.98041530
H      -0.85771181      3.75857504     -0.49115153
H      -2.98145581      2.33608674      0.61113321
H      -0.50035074      3.29874452      2.10266199
H       1.46613496      1.88237579      2.04636590
H       1.75472762      1.79926988     -0.66780701
H       2.89347139      0.12438784      0.78300509
H       1.66166633     -2.23130584      0.96389949
H       1.36433308     -0.95632330      2.13364874
