17
Clc1ccc2c(Cl)ccnc2c1
Cl     -3.87217109      1.49884048     -0.06407116
C      -2.34980752      0.69779479     -0.04424224
C      -2.30076281     -0.68844225     -0.07802807
C      -1.06153320     -1.32617074     -0.06151866
C       0.14198539     -0.57887182     -0.01090722
C       1.43812575     -1.14007170      0.00903428
Cl      1.69646823     -2.85272165     -0.02749596
C       2.56789005     -0.33240230      0.05922978
C       2.37591293      1.02975352      0.08864051
N       1.15997299      1.61288507      0.07136376
C       0.06955292      0.82996951      0.02283175
C      -1.17433203      1.44338704      0.00558903
H      -3.21413861     -1.27620829     -0.11696115
H      -1.04126917     -2.41383344     -0.08850251
H       3.56820105     -0.74917179      0.07503450
H       3.21769675      1.71579063      0.12817949
H      -1.22179163      2.52947293      0.03182386
