16
Nc1cnc2ncncc2n1
N       2.89265511     -1.07272022     -0.51891906
C       1.71639396     -0.42019616     -0.17228554
C       1.70437937      0.74254827      0.58358269
N       0.56619817      1.38369506      0.94771528
C      -0.59266579      0.84038212      0.56654889
N      -1.71923540      1.45783320      0.92133092
C      -2.86964999      0.89873809      0.53429182
N      -2.99132573     -0.22388461     -0.17921180
C      -1.82526420     -0.81443618     -0.51729418
C      -0.57405466     -0.34688989     -0.18571489
N       0.56720168     -0.98642244     -0.56188418
H       2.65098443     -1.87149758     -1.10079022
H       3.55879011     -0.46032804     -0.97660387
H       2.62527849      1.19869826      0.93032051
H      -3.78522369      1.40252781      0.82597872
H      -1.92446187     -1.72804770     -1.09706509
