66
CC(CCNCCNCCC(C)CC(C)(C)C)CC(C)(C)C
C      -5.58692788     -0.03708278     -2.20433160
C      -5.07925554      0.06916869     -0.76394040
C      -3.56922612     -0.29376413     -0.75693511
C      -2.86354584     -0.00007150      0.57377256
N      -1.42877951     -0.30430146      0.53561536
C      -0.65543028      0.71156785     -0.19313285
C       0.85462018      0.39407811     -0.13786893
N       1.63063539      1.44205749     -0.80978579
C       3.06191837      1.13484635     -0.87711184
C       3.78234572      1.34257087      0.46275034
C       5.31929122      1.13694888      0.42273673
C       5.97638954      2.15642010     -0.50689503
C       5.66985441     -0.33341386      0.08803019
C       7.13939519     -0.82376569      0.25505881
C       7.76931772     -0.32974185      1.56579674
C       8.02516504     -0.40667650     -0.93210130
C       7.11398228     -2.36971502      0.28420225
C      -5.87394808     -0.81356673      0.23177451
C      -7.40317908     -0.58138851      0.42415862
C      -7.81175422     -1.25163344      1.75807350
C      -7.75196918      0.91162282      0.51586152
C      -8.23663181     -1.24789431     -0.68490824
H      -4.89971080      0.45267758     -2.90350493
H      -6.54824486      0.46716628     -2.32468051
H      -5.69188980     -1.08195661     -2.51450725
H      -5.16338917      1.11847066     -0.45441037
H      -3.07953681      0.27815026     -1.55391137
H      -3.44534574     -1.35454395     -1.01205590
H      -3.29213782     -0.63765412      1.35343451
H      -3.03322400      1.03694030      0.88689366
H      -1.08246749     -0.34717463      1.49435165
H      -0.83243694      1.69940610      0.25051028
H      -0.96367937      0.75133305     -1.24341914
H       1.16330472      0.30715643      0.91015148
H       1.03086546     -0.57331211     -0.62428602
H       1.48966442      2.33420421     -0.33722529
H       3.49360886      1.80628986     -1.62695070
H       3.20818923      0.11720566     -1.25479699
H       3.57886642      2.35936728      0.82524218
H       3.36708827      0.66352010      1.21754934
H       5.66555958      1.35106565      1.44171227
H       7.03362973      2.28348661     -0.26112133
H       5.89781827      1.85826964     -1.55720060
H       5.51438536      3.14402902     -0.39830732
H       5.34790246     -0.55936754     -0.93688957
H       5.03974746     -0.95821290      0.73751676
H       8.75416917     -0.78382611      1.72582017
H       7.14194288     -0.58697495      2.42656139
H       7.91353025      0.75560372      1.56300333
H       8.22306493      0.66649208     -0.94984244
H       7.56412714     -0.68180868     -1.88720694
H       9.00218446     -0.90241218     -0.88457641
H       6.67087510     -2.77467534     -0.63301375
H       6.52754494     -2.74140887      1.13245760
H       8.12450332     -2.78418580      0.37701467
H      -5.41478933     -0.67090701      1.21766736
H      -5.70536741     -1.87011388     -0.01889105
H      -7.28572118     -0.80161059      2.60800911
H      -7.57863178     -2.32264025      1.74865815
H      -8.88665992     -1.14546304      1.94501478
H      -7.57221282      1.43188550     -0.42986707
H      -7.15891237      1.40798644      1.29221525
H      -8.80972953      1.05433124      0.76544563
H      -7.95644293     -2.29952609     -0.81185780
H      -9.30533693     -1.22063776     -0.44079645
H      -8.12897297     -0.75289064     -1.65110761
