29
CCc1nc2nc(N)[nH]c(=O)c2nc1CC
C      -2.58040059      2.22283179      0.83085639
C      -2.14629537      1.48465679     -0.42638194
C      -0.92305903      0.64103883     -0.18081258
N       0.26698782      1.28211468     -0.36454954
C       1.38800325      0.56559604     -0.13360909
N       2.59158897      1.25600343     -0.33451894
C       3.69191588      0.60744897     -0.14273476
N       4.88960625      1.21409950     -0.32069649
N       3.72136895     -0.70179096      0.23632778
C       2.59461826     -1.45351295      0.48742278
O       2.68201645     -2.61575879      0.86796478
C       1.31199410     -0.75769408      0.26908965
N       0.14472117     -1.42362699      0.46322147
C      -0.98377109     -0.69985880      0.23948544
C      -2.27610858     -1.44651857      0.43934706
C      -2.71961048     -2.15120386     -0.83372059
H      -1.78521639      2.88103751      1.19750106
H      -2.83601300      1.52741194      1.63694062
H      -3.46070157      2.83909664      0.62254500
H      -2.97028414      0.88077206     -0.81899315
H      -1.91681291      2.21888840     -1.20882007
H       5.62852275      0.65216493     -0.72277188
H       4.79072860      2.11278559     -0.78607312
H       4.60111832     -1.15422232      0.42989570
H      -3.06499936     -0.78047163      0.80238681
H      -2.13221648     -2.19496532      1.22871174
H      -2.89157447     -1.43949109     -1.64773233
H      -3.65162601     -2.69772335     -0.65831291
H      -1.96450128     -2.86910837     -1.17196889
