27
C=C1CCOC(C=C(C)C)C1
C      -3.21518487      1.14280358     -0.72200098
C      -2.43101753      0.32311442     -0.00662436
C      -2.82965701     -1.07885774      0.38402032
C      -1.72253970     -2.06357868      0.00131561
O      -0.46390321     -1.67767020      0.56921101
C      -0.03528801     -0.39577358      0.06955493
C       1.31403561     -0.13131229      0.68159447
C       2.41285684      0.37377953      0.08535112
C       3.69749887      0.53399152      0.85544906
C       2.48815915      0.82367930     -1.34714053
C      -1.04479774      0.69823346      0.46657673
H      -2.89267370      2.14425686     -0.99141690
H      -4.20393505      0.83811304     -1.05191375
H      -3.77288917     -1.37927407     -0.08507182
H      -2.97573725     -1.10087919      1.47099639
H      -1.96564508     -3.05859660      0.38791012
H      -1.61935317     -2.14963998     -1.08729340
H       0.03844669     -0.47411653     -1.02095927
H       1.37755439     -0.41068098      1.73327190
H       3.60812031      0.18881574      1.89087347
H       3.99586824      1.58716750      0.88086960
H       4.49756030     -0.04358153      0.38087492
H       3.16675217      0.17496568     -1.91036842
H       1.52035620      0.81985396     -1.85375739
H       2.86928879      1.84929059     -1.39933694
H      -1.08149550      0.79886854      1.55956840
H      -0.73238055      1.66702764      0.05844573
