33
CC(C)CCCC(C)CCO
C      -4.41116503     -0.63110778      0.08456345
C      -3.13065410      0.16751328     -0.17206935
C      -3.09447529      1.39131206      0.74445374
C      -1.90239660     -0.74331122      0.01172574
C      -0.57915317     -0.06913161     -0.36888261
C       0.58953391     -1.05758970     -0.28021175
C       1.93056505     -0.48634577     -0.79180409
C       2.96377206     -1.61811876     -0.84581422
C       2.42052909      0.69035135      0.07343506
C       3.73455801      1.30489452     -0.40052450
O       4.02290863      2.46752711      0.36745237
H      -4.44613742     -1.00671556      1.11294595
H      -5.29763153     -0.00927217     -0.07969900
H      -4.47743764     -1.48920963     -0.59267602
H      -3.15648202      0.51783634     -1.21170845
H      -2.25918366      2.05228508      0.49465504
H      -2.99635271      1.09784999      1.79505121
H      -4.01289580      1.97970286      0.64273770
H      -2.03261930     -1.63856795     -0.60995941
H      -1.84821958     -1.08886533      1.05205164
H      -0.64908202      0.32660000     -1.38887566
H      -0.39683382      0.77499193      0.30236645
H       0.33726150     -1.94623692     -0.87336459
H       0.70271151     -1.39574145      0.75780613
H       1.77916513     -0.12449201     -1.81722016
H       2.57949345     -2.47048189     -1.41669778
H       3.88542760     -1.29465934     -1.33886399
H       3.21732655     -1.97114385      0.15947187
H       1.66769842      1.48698651      0.08707822
H       2.52881808      0.37185714      1.11835565
H       4.57386968      0.61284930     -0.28821667
H       3.66839280      1.60440085     -1.45085291
H       4.08868821      2.19403263      1.29831564
