47
COc1ccc2c(c1)N(C[C@H](C)CN(C)C)c1ccccc1S2
C      -4.75682732     -3.95674547      0.58399950
O      -3.51356015     -3.30636324      0.81603221
C      -3.38916675     -2.02513555      0.35237014
C      -4.35447806     -1.31240356     -0.34563500
C      -4.09263771      0.00173583     -0.73299791
C      -2.86150390      0.61173223     -0.43999265
C      -1.84993037     -0.10272761      0.22840203
C      -2.15967572     -1.41638815      0.63731343
N      -0.59891587      0.49225310      0.53785079
C       0.60744663     -0.37497329      0.44480937
C       1.41748023     -0.15023403     -0.85686789
C       0.60918566     -0.54783621     -2.09957422
C       2.72559093     -0.97645700     -0.83035574
N       3.62438524     -0.65453119      0.29361177
C       4.66951027     -1.67703827      0.40861121
C       4.24831239      0.66199385      0.12924524
C      -0.37023215      1.89412399      0.59057026
C       0.71732586      2.43189714      1.30972114
C       0.94821108      3.80933641      1.38342068
C       0.08877077      4.69113462      0.74454739
C      -1.00347268      4.19221811      0.04058347
C      -1.24278148      2.80852083     -0.03249733
S      -2.65222662      2.29194376     -0.99288827
H      -4.94564448     -4.07544506     -0.48803977
H      -4.69791789     -4.95688045      1.02407489
H      -5.57880631     -3.42495643      1.07466807
H      -5.32057527     -1.73737110     -0.59402122
H      -4.86291191      0.55440621     -1.26702642
H      -1.45507213     -1.98830535      1.23475945
H       1.23219906     -0.21803093      1.33032043
H       0.36117640     -1.44060866      0.49192746
H       1.67024850      0.90935585     -0.96923364
H       1.21915025     -0.45520806     -3.00477342
H      -0.26115509      0.10049384     -2.23304881
H       0.25915675     -1.58348813     -2.03326091
H       2.44134598     -2.03602986     -0.76525296
H       3.25906580     -0.85960719     -1.78360450
H       4.22614746     -2.66219511      0.59149087
H       5.32190703     -1.46701087      1.26363918
H       5.28936548     -1.73822234     -0.49330823
H       3.50180085      1.46118337      0.13432090
H       4.92171297      0.87337577      0.96793738
H       4.82583908      0.73301170     -0.79949931
H       1.39929659      1.78546048      1.85420692
H       1.79576210      4.18631874      1.94984822
H       0.26095929      5.76246915      0.79831533
H      -1.67386080      4.89122809     -0.45471953
