21
CCC(=O)c1ccc(O)cc1
C      -3.68187558      0.11109970      0.02659390
C      -2.26818359     -0.40445268     -0.19127055
C      -1.21530898      0.62224667      0.19069503
O      -1.50968405      1.73479065      0.62385402
C       0.22772169      0.26131128      0.03209030
C       0.64030309     -0.98572551     -0.45454071
C       2.00270720     -1.27136459     -0.58301468
C       2.94827446     -0.31648397     -0.22731604
O       4.26330716     -0.64294451     -0.37090285
C       2.55800878      0.92631190      0.25737836
C       1.19651915      1.21354974      0.38645669
H      -3.87082350      1.00705443     -0.57401887
H      -4.41327240     -0.65164882     -0.25785440
H      -3.84866353      0.36991861      1.07748236
H      -2.14593568     -0.65878693     -1.24942499
H      -2.12355244     -1.30236480      0.41877625
H      -0.07159730     -1.75345142     -0.74117359
H       2.32640372     -2.23802026     -0.96028503
H       4.80540384      0.11178033     -0.08700499
H       3.28772407      1.67938462      0.53811545
H       0.89252389      2.18779557      0.76638750
