18
O=Cc1ccc(O)c(C(=O)O)c1
O      -1.90820333     -2.84100547      1.97463537
C      -0.87002979     -2.20941246      1.82603911
C      -0.73858132     -1.14503643      0.81028002
C      -1.81863722     -0.83015185     -0.01946534
C      -1.68718855      0.17627691     -0.97653739
C      -0.48080532      0.86387254     -1.10228807
O      -0.44196704      1.83478818     -2.06719839
C       0.60710705      0.55252575     -0.27241018
C       1.87572024      1.29757363     -0.42691143
O       2.05710357      2.18646996     -1.24133977
O       2.83721733      0.90581636      0.42461409
C       0.47443457     -0.45968300      0.68993682
H       0.01760833     -2.41018545      2.44920993
H      -2.76192632     -1.36517763      0.07621171
H      -2.52439959      0.42509959     -1.62451709
H       0.44655937      2.25283372     -2.07031093
H       3.60651376      1.47621098      0.21082327
H       1.30947425     -0.71081533      1.33922828
