18
O=Cc1cccc(C(=O)O)c1O
O      -2.59833982      1.79097442      2.23367196
C      -1.83456484      0.84422289      2.07569313
C      -1.01053993      0.70723874      0.85603123
C      -1.10597510      1.68439842     -0.14308690
C      -0.33923349      1.57757438     -1.30242941
C       0.52533891      0.49443141     -1.46767044
C       0.62775404     -0.48978060     -0.47193564
C       1.54207275     -1.64200288     -0.63871145
O       1.67732974     -2.52946148      0.18719330
O       2.22540584     -1.63467653     -1.79357628
C      -0.14572669     -0.38203936      0.69764343
O      -0.08485919     -1.31563476      1.70302333
H      -1.73754755      0.05960128      2.84378102
H      -1.77941762      2.53114457     -0.01800728
H      -0.41606865      2.33849307     -2.07621412
H       1.11595456      0.42780954     -2.37926935
H       2.78057035     -2.44264028     -1.76628182
H       0.55784669     -2.01965286      1.46014527
