15
Cn1ccccc1=O
C       2.14267278      0.22602523      0.19192658
N       0.70497038      0.05974823      0.05787836
C      -0.11870930      1.11999586      0.39749353
C      -1.44977208      1.02548695      0.29480740
C      -2.04938923     -0.19596818     -0.17628573
C      -1.28407037     -1.24159622     -0.51364092
C       0.19948023     -1.15520246     -0.40601657
O       0.87751526     -2.12911938     -0.72202841
H       2.46647234      1.05627831     -0.44382791
H       2.68663953     -0.67476190     -0.10465104
H       2.37982404      0.45063433      1.23675217
H       0.36063144      2.02861329      0.74964755
H      -2.09559073      1.85562643      0.56066866
H      -3.13029999     -0.24780991     -0.25069887
H      -1.69037430     -2.17795057     -0.87202480
