15
Nc1cccc(N)n1
N       2.42433075      0.83418934      0.13846443
C       1.17895546      0.22800966     -0.02174595
C       1.08849888     -1.13630657     -0.25492048
C      -0.17120343     -1.70509296     -0.39668238
C      -1.29205189     -0.89097176     -0.29005513
C      -1.10984545      0.46028741     -0.03547489
N      -2.20880177      1.31236176      0.06623689
N       0.10295311      1.02535638      0.09374417
H       2.25069792      1.83026738      0.24933485
H       3.02919494      0.64549952     -0.65209234
H       1.98132033     -1.74770559     -0.31958269
H      -0.27795428     -2.76827188     -0.58764425
H      -2.28763012     -1.30297448     -0.40921039
H      -2.86567439      0.98308019      0.76375860
H      -1.84279005      2.23227159      0.29950475
