44
C[C@H]1C(c2ccc(Cl)cc2)SC(=O)N1C(=O)NC1CCCCC1
C       1.90076439      1.48982654     -0.78391889
C       1.76534856     -0.00253694     -0.44107663
C       2.90647168     -0.57588720      0.41411539
C       4.31201835     -0.17935992      0.01867153
C       4.97588297      0.94101133      0.54676482
C       6.26646569      1.27563499      0.12439800
C       6.90665796      0.49837162     -0.83572683
Cl      8.49286509      0.91235989     -1.35553887
C       6.26627369     -0.61027844     -1.37994141
C       4.97659344     -0.94474510     -0.95750822
S       2.39365620     -0.19050419      2.11135190
C       0.68884988     -0.24154752      1.68472298
O      -0.19103731     -0.27279239      2.53205141
N       0.53233729     -0.24407139      0.30767656
C      -0.67341785     -0.33045927     -0.37405959
O      -0.74400520     -0.20618008     -1.59550373
N      -1.77449283     -0.59107520      0.39978856
C      -3.12511366     -0.58621557     -0.14246497
C      -3.65044103      0.84913218     -0.28181665
C      -5.09329881      0.87564110     -0.77953570
C      -6.00918769      0.03096259      0.10095209
C      -5.49206638     -1.39744515      0.24188038
C      -4.05110370     -1.42622850      0.74399301
H       1.97624729      2.11258232      0.11364470
H       2.78014090      1.67482951     -1.40848735
H       1.02794438      1.84171245     -1.34459172
H       1.71942518     -0.55252054     -1.39037694
H       2.84933873     -1.67253191      0.36784716
H       4.50257458      1.57629409      1.29315939
H       6.76327660      2.14424835      0.54924135
H       6.76305714     -1.21784597     -2.13202935
H       4.49551296     -1.81610834     -1.39987103
H      -1.67271815     -0.44540778      1.40251515
H      -3.08614834     -1.04155696     -1.14070284
H      -3.01809951      1.42004377     -0.97227312
H      -3.59028403      1.36195090      0.68722708
H      -5.12990468      0.50059791     -1.80975822
H      -5.45585973      1.90947800     -0.80315578
H      -6.08578784      0.49069577      1.09400678
H      -7.01929988      0.01740576     -0.32361009
H      -5.55020675     -1.90455934     -0.72908093
H      -6.13426610     -1.95542019      0.93256633
H      -3.69556497     -2.46332095      0.77825245
H      -4.01939851     -1.05418024      1.77660804
