21
C=CC(=O)OC(C)(C)C
C       3.78245945      0.18082786      0.60094521
C       2.52687589      0.61518020      0.76765782
C       1.38105944     -0.14862973      0.22670188
O       1.46975833     -1.19460835     -0.39160987
O       0.25406081      0.52894030      0.54821331
C      -1.04595031      0.02293988      0.14988048
C      -1.17720550     -0.03382037     -1.37614473
C      -2.04904145      1.05297786      0.69111055
C      -1.33799657     -1.33392433      0.80013510
H       3.99887513     -0.74064533      0.06644980
H       4.62194874      0.74133617      0.99781609
H       2.31096764      1.53321960      1.30013921
H      -0.88180296      0.92002688     -1.82750411
H      -2.20528885     -0.25924269     -1.67952688
H      -0.53132089     -0.80109400     -1.81359030
H      -3.08216047      0.77996992      0.45168352
H      -1.95973192      1.14919338      1.77953547
H      -1.84862287      2.04756230      0.27573523
H      -1.15572262     -1.29481332      1.87997717
H      -0.69501966     -2.12470105      0.40203025
H      -2.37614135     -1.64069517      0.63292765
