29
CCCOP(=O)(OC)OCCC
C      -2.67575108     -1.15231923      2.77844943
C      -1.56854125     -0.13229576      2.58354689
C      -1.47694204      0.33151475      1.13641057
O      -0.42370773      1.27383967      1.03183337
P       0.05627397      1.72835667     -0.43701319
O       1.07981032      2.81933601     -0.45963992
O      -1.31717009      2.06733765     -1.20769636
C      -1.19051627      2.58026574     -2.51799939
O       0.53477042      0.35024994     -1.12447548
C       1.79883190     -0.14766324     -0.71695552
C       1.96145531     -1.55926697     -1.26365833
C       3.29455350     -2.16746418     -0.86777620
H      -2.50218773     -2.04079828      2.16370552
H      -2.72231035     -1.46796933      3.82554715
H      -3.64896751     -0.73111212      2.50693577
H      -0.60794189     -0.55989160      2.89461969
H      -1.73924109      0.73135790      3.23748556
H      -2.41385246      0.80829841      0.83072762
H      -1.28377831     -0.52081366      0.47678403
H      -0.69417920      3.55437608     -2.49299509
H      -2.18927760      2.70362300     -2.94443238
H      -0.62196810      1.88797311     -3.14492956
H       2.58168707      0.50971107     -1.11081951
H       1.85829083     -0.15199805      0.37712276
H       1.86734430     -1.54532900     -2.35671076
H       1.14195910     -2.19083067     -0.89861025
H       4.12771777     -1.55128554     -1.21927807
H       3.40056474     -3.16651005     -1.30089703
H       3.37307348     -2.26069232      0.22071869
