49
COc1cc2nc(N3CCN(C(=O)c4ccco4)CC3)nc(N)c2cc1OC
C       5.39811117     -2.42490025     -2.45070388
O       5.79054592     -1.25158722     -1.75223301
C       4.80563563     -0.50381076     -1.15574758
C       3.44299720     -0.82714504     -1.17738681
C       2.48719925     -0.03239595     -0.55631864
N       1.20410589     -0.40529323     -0.60691778
C       0.28162684      0.35426826      0.00177311
N      -1.04030862     -0.03603436     -0.05875577
C      -1.34038831     -1.42810474     -0.40429150
C      -2.54431661     -1.97021682      0.38736751
N      -3.72066077     -1.10028218      0.31732243
C      -4.98852101     -1.68102166      0.42203836
O      -5.09105965     -2.88316182      0.68096732
C      -6.18117641     -0.86717102      0.22679247
C      -7.50393273     -1.16230248      0.51530466
C      -8.27958726     -0.05586617      0.09676634
C      -7.39290748      0.84604053     -0.43822793
O      -6.12601596      0.36456111     -0.37190080
C      -3.45581898      0.34408249      0.29438932
C      -2.02201520      0.71559273      0.71828475
N       0.58968750      1.49068453      0.64126289
C       1.87394025      1.86516882      0.67407547
N       2.12090639      3.06813866      1.35031185
C       2.90408657      1.12349946      0.09607366
C       4.27922615      1.46189075      0.13944182
C       5.23075401      0.65263126     -0.48154949
O       6.57852341      0.90371022     -0.49390221
C       7.05451359      1.99648114      0.27892201
H       4.73537874     -2.18331522     -3.28815774
H       4.93487595     -3.15057002     -1.77419753
H       6.30063150     -2.88554360     -2.86388320
H       3.08487673     -1.71854503     -1.68256274
H      -0.49603317     -2.10082084     -0.21090503
H      -1.56202995     -1.47372523     -1.47735393
H      -2.79226345     -2.97432174      0.02618189
H      -2.28305527     -2.06021099      1.44921877
H      -7.85087789     -2.07951669      0.97261818
H      -9.35156279      0.06419053      0.16677305
H      -7.49923352      1.82281674     -0.88963493
H      -3.62792168      0.68099597     -0.73461275
H      -4.16144725      0.85554698      0.95666256
H      -1.88848930      0.49940900      1.78602902
H      -1.90284185      1.79644249      0.57418117
H       1.21504819      3.42436006      1.64740324
H       2.59300541      3.73168784      0.74591377
H       4.57187461      2.35859954      0.67516157
H       8.14572071      2.01278084      0.19872348
H       6.80062970      1.87476144      1.33716292
H       6.67856378      2.94752165     -0.11206616
