41
CCCCCCCC(=O)OCSc1ncnc2[nH]cnc12
C      -7.76151462     -0.43272026     -0.42001301
C      -6.45189776     -1.16323641     -0.67094273
C      -5.25749710     -0.37239539     -0.13520553
C      -3.94293920     -1.11126117     -0.39523710
C      -2.72274574     -0.42291415      0.22433962
C      -2.41436540      0.94324401     -0.39807806
C      -1.13421358      1.56211469      0.16509984
C       0.12228105      0.88372222     -0.33168555
O       0.18984152      0.12756332     -1.28986842
O       1.17777986      1.26754357      0.43513034
C       2.42091954      0.68386827      0.02994235
S       3.75536151      1.25136558      1.12500371
C       5.12203265      0.39078145      0.41077482
N       4.95463119     -0.40378116     -0.67846473
C       6.03912319     -1.03358893     -1.17731415
N       7.30844033     -0.98282955     -0.73038024
C       7.40689465     -0.18501591      0.34238041
N       8.54086921      0.09463629      1.04811494
C       8.19628474      0.94735121      2.05977004
N       6.91120632      1.23013424      2.04429761
C       6.39717262      0.52694047      0.97070079
H      -7.92450015     -0.27639030      0.65110105
H      -7.76717485      0.54376077     -0.91479587
H      -8.60158671     -1.01591333     -0.81000486
H      -6.49257175     -2.14797986     -0.19106562
H      -6.33419890     -1.33125165     -1.74780928
H      -5.38019412     -0.20728307      0.94197808
H      -5.23672988      0.61231775     -0.61524443
H      -3.79024794     -1.22725059     -1.47518502
H      -4.01249649     -2.12294352      0.02373929
H      -1.86039986     -1.08787890      0.09720145
H      -2.87493408     -0.31006477      1.30472874
H      -2.34232111      0.84870392     -1.48810556
H      -3.24085472      1.63166804     -0.18890091
H      -1.15523614      1.52150603      1.26003239
H      -1.07694633      2.61234936     -0.14278957
H       2.64479802      0.99305361     -0.99700699
H       2.34414962     -0.40714666      0.09506808
H       5.86549747     -1.65964338     -2.04850202
H       9.45928557     -0.27058450      0.84599643
H       8.91899736      1.32583528      2.77119968
