43
COC(=O)C1C(OC(=O)c2ccccc2)CC2CCC1N2C
C      -1.27338135      3.18382022     -2.94978546
O      -1.34927147      2.55194490     -1.67101390
C      -1.01564497      1.22862956     -1.68306673
O      -0.69856154      0.60282203     -2.68498676
C      -1.12965473      0.65324478     -0.28819161
C      -0.21113292     -0.57053996     -0.11650371
O       1.15102740     -0.09901625     -0.00356201
C       2.12334320     -1.00667467     -0.27046970
O       1.94811292     -2.17716303     -0.56947361
C       3.46831759     -0.38191840     -0.14575235
C       3.64539482      0.95487774      0.23778744
C       4.93161315      1.49078363      0.34077420
C       6.04436458      0.69759566      0.06244978
C       5.87628187     -0.63270944     -0.31918181
C       4.59253932     -1.17206936     -0.42304481
C      -0.58595278     -1.36740757      1.14955748
C      -2.10682188     -1.50782198      1.33365611
C      -2.77774458     -2.11034319      0.09679620
C      -3.11844527     -0.90438897     -0.78029063
C      -2.60520093      0.31300183      0.00531788
N      -2.64167779     -0.13564340      1.41389303
C      -3.98225368     -0.08363978      1.99458042
H      -1.54556011      4.23543432     -2.82446367
H      -0.25285276      3.13453418     -3.34225957
H      -1.98084259      2.72336684     -3.64643356
H      -0.78107197      1.43664933      0.40160832
H      -0.28935344     -1.22184415     -0.99686987
H       2.79258406      1.59096189      0.46059506
H       5.06510503      2.52797674      0.63861723
H       7.04440291      1.11694697      0.14300556
H       6.74370107     -1.25111017     -0.53657173
H       4.47166035     -2.21161411     -0.72245958
H      -0.12615482     -2.36220859      1.10592088
H      -0.14932717     -0.88066469      2.03257514
H      -2.30439412     -2.09477886      2.23762275
H      -2.13588017     -2.82675704     -0.42632780
H      -3.70056190     -2.63445380      0.37220252
H      -2.68133757     -0.99624563     -1.77863922
H      -4.20604177     -0.84495603     -0.90888017
H      -3.23293606      1.19498463     -0.16934182
H      -3.95408788     -0.43217072      3.03283321
H      -4.72344320     -0.68333382      1.45665632
H      -4.33885887      0.95189837      2.02075776
