22
CC1CCC(O)CC1
C      -2.56150361     -0.24766095     -0.34450003
C      -1.04561469     -0.13183937     -0.49305078
C      -0.55348994      1.22885668      0.02022159
C       0.96504735      1.34790636     -0.06944471
C       1.66299181      0.19781380      0.65361632
O       3.07068409      0.30128371      0.46866277
C       1.17797326     -1.15946299      0.14842999
C      -0.34021027     -1.28267757      0.23845815
H      -2.86537530     -0.18220835      0.70575776
H      -3.06763323      0.55299617     -0.89402749
H      -2.91844157     -1.20384342     -0.74137444
H      -0.80530055     -0.20433934     -1.56225919
H      -0.86526471      1.36964081      1.06310629
H      -1.01444955      2.03663330     -0.56057875
H       1.29339874      2.30469715      0.35407901
H       1.27456449      1.36836279     -1.12251087
H       1.47178818      0.27513023      1.73025795
H       3.25350201      0.23402121     -0.48406272
H       1.65563593     -1.96092809      0.72473502
H       1.50182991     -1.30786803     -0.88996318
H      -0.63915779     -1.29294360      1.29446818
H      -0.65097457     -2.24357050     -0.18865567
