27
O=C(OC(=O)c1ccccc1)c1ccccc1
O       1.26181129      2.10098511      1.82437375
C       1.12185978      1.12615880      1.10472298
O      -0.01099097      0.63902848      0.54675321
C      -1.16360017      1.30086214      0.80257467
O      -1.33749142      2.29963862      1.48079053
C      -2.30034940      0.62474618      0.10936039
C      -3.58236541      1.17470927      0.26144555
C      -4.68519289      0.58747800     -0.36217943
C      -4.51707584     -0.55399614     -1.14300685
C      -3.24846939     -1.10957406     -1.30159096
C      -2.14218746     -0.52428040     -0.67869473
C       2.28488796      0.27419509      0.71561915
C       3.55133901      0.62936262      1.20460652
C       4.67729584     -0.12827375      0.87568962
C       4.54805328     -1.24706938      0.05562194
C       3.29523917     -1.60991857     -0.43628992
C       2.16588395     -0.85369415     -0.10900830
H      -3.72859825      2.06688780      0.86899465
H      -5.67397241      1.02246679     -0.23717761
H      -5.37630379     -1.01089611     -1.62844982
H      -3.12110565     -2.00070248     -1.91190979
H      -1.16917144     -0.98191387     -0.82275851
H       3.66723062      1.50155607      1.84673519
H       5.65369159      0.15651861      1.26048539
H       5.42528197     -1.83673873     -0.20020469
H       3.19823308     -2.48394100     -1.07620817
H       1.20606694     -1.16359496     -0.50857809
