13
CCC[N+](=O)[O-]
C      -1.76439190      0.14138411      0.20088612
C      -0.34843363      0.43240345     -0.26908517
C       0.65563410     -0.48789205      0.40939155
N       2.02495522     -0.14962252     -0.09613657
O       2.41807814     -0.75187523     -1.10287813
O       2.65820775      0.71159255      0.52682605
H      -1.85699401      0.28927635      1.28160901
H      -2.47392506      0.81069561     -0.29560804
H      -2.05041596     -0.88953007     -0.03109488
H      -0.29919361      0.31232542     -1.35830923
H      -0.10739707      1.48122205     -0.05663792
H       0.47474359     -1.54233917      0.17705081
H       0.66913244     -0.35764050      1.49632074
