13
[Na+].[O-]n1ccccc1=S
Na      0.00000000      0.00000000      0.00000000
O       2.04022869     -1.76225839     -0.04002360
N       1.02077483     -0.82271762     -0.01857784
C      -0.23467235     -1.37549207     -0.03411125
C      -1.32007548     -0.59171567     -0.01658807
C      -1.16795636      0.84097365      0.01879712
C       0.04966797      1.40325734      0.03449875
C       1.29879556      0.55264794      0.01559686
S       2.81757261      1.30608941      0.03646227
H      -0.30534209     -2.45809769     -0.06077786
H      -2.31315374     -1.02049213     -0.02866460
H      -2.06240106      1.45062327      0.03235093
H       0.17656142      2.47718194      0.06103729
