34
C=C(CC(=O)c1ccc(-c2ccccc2Cl)cc1)C(=O)O
C       5.79734186     -0.19500625      0.79423901
C       4.67280626     -0.73563521      0.29385576
C       3.29865356     -0.40210553      0.80954490
C       2.49765282      0.38262697     -0.22542260
O       3.03254438      1.03906340     -1.11878436
C       1.00682479      0.38551197     -0.12312630
C       0.33161414     -0.05621309      1.01930652
C      -1.06763376     -0.02830215      1.06347979
C      -1.81717804      0.44791935     -0.02325668
C      -3.28679233      0.46762549      0.02245213
C      -4.00524651     -0.47324641     -0.73975943
C      -5.40214955     -0.49941335     -0.72907925
C      -6.10970708      0.41654016      0.04357185
C      -5.42074061      1.35959189      0.80464848
C      -4.02108898      1.38740339      0.79552133
Cl     -3.24488940      2.60251521      1.75426600
C      -1.13047356      0.89292352     -1.16184266
C       0.26669089      0.86514464     -1.21093603
C       4.70168118     -1.72783947     -0.80627369
O       3.73432327     -2.35273196     -1.20668037
O       5.91943275     -1.91097478     -1.34113770
H       5.76552486      0.53434485      1.59690707
H       6.77957987     -0.44989927      0.40667235
H       3.35784620      0.20854575      1.71813634
H       2.78405038     -1.33602752      1.06106309
H       0.86176045     -0.41689270      1.89531463
H      -1.57586476     -0.37808139      1.96089624
H      -3.47028017     -1.20141832     -1.34804907
H      -5.93525698     -1.23660499     -1.32492003
H      -7.19672300      0.39849719      0.05238427
H      -5.97953636      2.07537671      1.40257678
H      -1.68122957      1.27337460     -2.02028472
H       0.77430300      1.22067145     -2.10623978
H       5.76216002     -2.55728415     -2.05910309
