29
c1ccc2c(c1)Nc1c(ccc3ccccc13)S2
C       4.51136849      0.64281647     -0.40384476
C       4.82679727     -0.70971466     -0.34687881
C       3.80869733     -1.65154944     -0.19913661
C       2.46620980     -1.25034376     -0.11441791
C       2.13929980      0.11031769     -0.19818937
C       3.17826632      1.04888694     -0.32067105
N       0.81954957      0.58220384     -0.05874443
C      -0.36518076     -0.19469972      0.02310000
C      -0.29449676     -1.60096994      0.10591106
C      -1.46788969     -2.35527531      0.20590811
C      -2.71155253     -1.73189924      0.24793184
C      -2.81313114     -0.33833077      0.21483210
C      -4.07991977      0.26532693      0.28719360
C      -4.21705716      1.65091385      0.28230507
C      -3.08642195      2.45053769      0.21171856
C      -1.82014175      1.86282558      0.13469253
C      -1.64096711      0.45573874      0.12013560
S       1.23612688     -2.52157577      0.07779776
H       5.30068438      1.38316977     -0.50483746
H       5.86246355     -1.03350252     -0.40840959
H       4.06992379     -2.70624291     -0.14595682
H       2.95388949      2.11219928     -0.34707815
H       0.68219663      1.49796591     -0.46389421
H      -1.42301784     -3.44126377      0.25446307
H      -3.60282780     -2.35144719      0.32409636
H      -4.97794701     -0.34578219      0.35522713
H      -5.20394025      2.10163326      0.34301343
H      -3.18324886      3.53315203      0.22121176
H      -0.96773293      2.53490922      0.10252117
