36
CC(=O)N(c1onc(C)c1C)S(=O)(=O)c1ccc(N)cc1
C      -1.33998578     -2.44743986     -1.66114386
C      -0.39650702     -2.28966432     -0.49245715
O       0.59195602     -3.01111312     -0.40346916
N      -0.72125834     -1.30574192      0.47814742
C      -1.38904667     -0.11090306     -0.02500012
O      -0.93567357      0.63022510     -1.07106582
N      -1.79649470      1.68228282     -1.30293997
C      -2.76493437      1.56827242     -0.38685408
C      -3.86670195      2.55865252     -0.33902479
C      -2.56638805      0.43143384      0.44492749
C      -3.42018836     -0.03163723      1.56278303
S       0.26091200     -1.00888909      1.82118488
O      -0.31780568      0.06577146      2.60848790
O       0.56330177     -2.26834321      2.47156846
C       1.76349634     -0.37524698      1.10577223
C       2.84325995     -1.23030691      0.88135155
C       4.02881172     -0.71749084      0.34801410
C       4.13662458      0.63537469      0.01101809
N       5.36318435      1.15944245     -0.41050498
C       3.07419290      1.49191312      0.31623113
C       1.88298864      0.99284088      0.85002670
H      -1.14061092     -1.68019160     -2.41295397
H      -2.37982837     -2.39300274     -1.32773202
H      -1.18408934     -3.42939525     -2.11843048
H      -4.80757536      2.09431637     -0.65093927
H      -3.99214450      2.94367073      0.67803040
H      -3.67266003      3.41058187     -0.99891104
H      -3.19654730     -1.06647025      1.84008871
H      -3.26831118      0.59965436      2.44390890
H      -4.47826482      0.01517765      1.28551916
H       2.77556895     -2.29018887      1.11979244
H       4.87145642     -1.38803101      0.19831894
H       5.95585115      0.48813946     -0.88900336
H       5.28630921      2.03581638     -0.91705299
H       3.16796530      2.56133203      0.14380453
H       1.06913702      1.67915811      1.07319801
