34
NC(=O)CNC(=O)CNC(=O)OCc1ccccc1
N      -3.15563021     -0.88501965      1.55433516
C      -4.37425357     -1.17496682      1.00794028
O      -5.34274312     -1.38664906      1.73352926
C      -4.47513739     -1.16596121     -0.52128755
N      -3.22124196     -0.86888093     -1.19332034
C      -2.37619424     -1.86118188     -1.63606377
O      -2.69029320     -3.04717961     -1.66515648
C      -1.03649950     -1.36307626     -2.19462486
N      -0.66414498     -0.02812763     -1.75149890
C      -0.23410672      0.16090775     -0.46956673
O      -0.44964050     -0.61657037      0.44786122
O       0.43021889      1.33131754     -0.39183434
C       0.99803122      1.64667973      0.88645507
C       2.48606569      1.42435071      0.82047232
C       3.02563742      0.15854850      1.09435236
C       4.40189587     -0.05910064      1.00803660
C       5.25062167      0.98375914      0.64093475
C       4.72445354      2.24358346      0.35874542
C       3.34812310      2.46260816      0.44380206
H      -3.08114608     -1.02134007      2.55388554
H      -2.30267923     -1.04867277      1.02421649
H      -4.85614557     -2.13855469     -0.84720576
H      -5.18240144     -0.38105232     -0.80691320
H      -2.83447021      0.06091117     -1.08998116
H      -1.10977671     -1.34049997     -3.28629510
H      -0.25009169     -2.06231211     -1.89177569
H      -0.21410410      0.58931448     -2.41562211
H       0.78161300      2.70129446      1.09247246
H       0.55416034      1.07733913      1.71338107
H       2.37325874     -0.66716421      1.37302980
H       4.81113093     -1.04323541      1.22163923
H       6.32246387      0.81536179      0.56879261
H       5.38807681      3.05436921      0.06980160
H       2.95494933      3.44920038      0.21018096
