33
O=c1n(CCO)c(=O)n(CCO)c(=O)n1CCO
O       1.65918294      1.76314060      0.74438091
C       0.84959221      0.94921270      0.28498473
N       1.23162981     -0.31822537     -0.09519102
C       2.60559968     -0.73563457      0.18062004
C       2.76816058     -1.26165934      1.61154396
O       2.40082454     -0.29063885      2.58925821
C       0.33960972     -1.26326242     -0.54309531
O       0.63594593     -2.45837176     -0.62447269
N      -0.91939176     -0.81344297     -0.86763658
C      -1.86532909     -1.75713372     -1.47278781
C      -2.54396772     -2.64709238     -0.42494731
O      -1.72765145     -3.75125780     -0.04068500
C      -1.39052242      0.42335997     -0.48120661
O      -2.56129956      0.76171932     -0.66747216
N      -0.48551570      1.25629389      0.13924740
C      -0.93145543      2.59241004      0.53299964
C      -0.77559626      3.60211117     -0.60949043
O       0.57176489      3.69567177     -1.06822077
H       3.27149066      0.12175861      0.02853212
H       2.90399538     -1.51313093     -0.53168150
H       2.14617525     -2.14689785      1.77637914
H       3.81106154     -1.54162694      1.78938042
H       2.65163813      0.59434663      2.25826902
H      -1.32408990     -2.37555367     -2.19863051
H      -2.63031374     -1.19398114     -2.01837247
H      -3.46301174     -3.06887234     -0.84339859
H      -2.80710955     -2.08308465      0.47541660
H      -0.78537999     -3.49543275     -0.12271145
H      -0.34134617      2.92296661      1.39570663
H      -1.97963734      2.55650993      0.85009771
H      -1.39660535      3.32203575     -1.46606907
H      -1.08778415      4.59594162     -0.27413849
H       1.16933604      3.55782083     -0.30660875
