43
CC(C)[C@H](N)C(=O)OCCOCn1cnc2c(=O)[nH]c(N)nc21
C       4.75764499     -0.29096637     -1.65864246
C       4.73838584      0.90407046     -0.69831929
C       6.15203373      1.47808694     -0.55627466
C       4.12219098      0.57298742      0.68120961
N       4.86395925     -0.50127959      1.38563520
C       2.61681622      0.25828497      0.54492181
O       1.81244105      0.97568895     -0.03788114
O       2.28307163     -0.90942432      1.17079627
C       0.90499161     -1.29187988      1.05039991
C       0.02676750     -0.53197572      2.04525245
O      -1.34348713     -0.91321059      1.94184641
C      -2.02902650     -0.19427350      0.91352937
N      -3.41295035     -0.62431023      0.85428143
C      -4.06880507     -1.47396258      1.70736057
N      -5.33058325     -1.64862707      1.36257162
C      -5.48590895     -0.87362948      0.24171982
C      -6.64082503     -0.65081681     -0.59983229
O      -7.74703604     -1.16258524     -0.45743636
N      -6.37035788      0.23476221     -1.63532346
C      -5.14074434      0.81760828     -1.86826235
N      -5.06554150      1.64687728     -2.93994371
N      -4.08642674      0.61891867     -1.12318228
C      -4.31696859     -0.22727811     -0.09054231
H       5.42172111     -1.08704896     -1.30617393
H       3.75621529     -0.71297409     -1.78897727
H       5.11383152      0.01972978     -2.64700324
H       4.12040599      1.68228779     -1.16650853
H       6.85145619      0.74009627     -0.14956798
H       6.53631492      1.79989860     -1.53014762
H       6.15285370      2.35059146      0.10558561
H       4.17682586      1.46149884      1.32257805
H       4.74532409     -1.37439983      0.86961138
H       4.40457779     -0.67134836      2.28237158
H       0.84338777     -2.36611634      1.25824080
H       0.56148507     -1.17300311      0.01654905
H       0.35853662     -0.77796146      3.06041863
H       0.13624393      0.55461752      1.95178575
H      -1.58073827     -0.39371394     -0.06451201
H      -2.03073814      0.87852175      1.13502295
H      -3.58213256     -1.93592751      2.55741567
H      -7.13058134      0.38493812     -2.27614352
H      -5.88366417      2.21115948     -3.12991713
H      -4.21096680      2.19608831     -2.93373140
