35
CCCCCC1(CCO)C(=O)NC(=S)NC1=O
C       5.09717410      0.09555589     -0.12983797
C       3.73757868     -0.54548021     -0.35785373
C       2.60807168      0.32795632      0.18786175
C       1.24031917     -0.32097640     -0.04434125
C       0.11147565      0.55871197      0.51043613
C      -1.33575167      0.02348371      0.27600712
C      -1.49347375     -1.42187195      0.81074549
C      -2.93407205     -1.94055479      0.84373653
O      -3.60583223     -1.69139381     -0.38049406
C      -2.24213411      0.97178484      1.04857773
O      -2.49894213      0.83750904      2.24376897
N      -2.68380452      2.07774390      0.37018106
C      -2.61722101      2.26327016     -0.97499737
S      -3.26302513      3.61664586     -1.69167143
N      -2.02261896      1.29048964     -1.71479476
C      -1.60977241      0.08116357     -1.22218903
O      -1.42875519     -0.86932809     -1.98332959
H       5.89002348     -0.54562899     -0.52755495
H       5.28571128      0.24632776      0.93789577
H       5.16208139      1.06660920     -0.63101522
H       3.59408550     -0.71190518     -1.43182247
H       3.71711725     -1.52774076      0.12838766
H       2.75834023      0.49448284      1.26151768
H       2.63625584      1.31042426     -0.29899004
H       1.09983610     -0.48479990     -1.11819594
H       1.22703991     -1.30203545      0.44290624
H       0.27544572      0.68743785      1.58961039
H       0.20793861      1.56304549      0.07497244
H      -0.91516315     -2.10822390      0.17932896
H      -1.07662247     -1.50290404      1.82262406
H      -2.94415677     -3.01884775      1.03429092
H      -3.50875068     -1.46629214      1.64418385
H      -3.09902385     -2.13332447     -1.09107395
H      -3.22911243      2.73806203      0.91033790
H      -2.14026208      1.34060348     -2.71920888
