23
CC(C=NNC(N)=O)=NNC(N)=O
C      -1.01841315     -1.47744440     -1.19780819
C      -0.71404914     -0.29515083     -0.32191564
C       0.72123677     -0.10074772      0.07583910
N       1.39022075     -1.11289288      0.52404193
N       2.71372486     -0.89474385      0.82410544
C       3.56969663     -0.14641765      0.03708409
N       4.86041519     -0.18710384      0.47482878
O       3.26663850      0.53635045     -0.93306800
N      -1.56373581      0.57635321      0.13538370
N      -2.88265377      0.40568448     -0.18736704
C      -3.85347195      1.27612464      0.23999881
N      -3.38258855      2.36258181      0.90096517
O      -5.04734418      1.09315099      0.03945770
H      -1.62329588     -1.16371358     -2.05300676
H      -0.09973000     -1.92755201     -1.58341652
H      -1.56442980     -2.22666665     -0.61821733
H       1.09194279      0.93209483     -0.02818081
H       3.13480806     -1.64900141      1.35202923
H       5.21207440     -1.04001098      0.88231990
H       5.50635241      0.28479476     -0.14690697
H      -3.20999242     -0.41745764     -0.67862451
H      -2.45046121      2.25295072      1.27750935
H      -4.05694450      2.91881756      1.40346455
