22
O=C(O)COC1CCCC1
O       2.80183964     -1.60218701      0.45429271
C       2.92700556     -0.38863323      0.44375338
O       4.14306909      0.16394195      0.23986139
C       1.83972820      0.66593488      0.62302154
O       0.54330985      0.16158111      0.91658411
C      -0.13069814     -0.38766922     -0.21713383
C      -1.26157171     -1.28098251      0.28180792
C      -2.37930111     -0.31400419      0.66664571
C      -2.12378995      0.96723333     -0.12572302
C      -0.88762334      0.69588441     -0.97962583
H       4.73812834     -0.61088395      0.15306299
H       1.81112049      1.30076857     -0.26857986
H       2.13320149      1.28446541      1.47763473
H       0.56077385     -0.94612664     -0.85608266
H      -1.60809935     -1.93510856     -0.52710473
H      -0.96811785     -1.90434310      1.13217896
H      -3.36359643     -0.73938772      0.44580898
H      -2.34904350     -0.09963083      1.74116090
H      -1.93543568      1.79814281      0.56416045
H      -2.98357264      1.24356338     -0.74429673
H      -1.19732346      0.31558559     -1.96037067
H      -0.31000334      1.61185553     -1.13106316
