17
Cc1ccncc1C
C      -1.40875250      1.32836651      0.32373338
C      -0.09691047      0.63040650      0.10347756
C       1.09144434      1.36879127      0.11044783
C       2.29267811      0.70898367     -0.09435700
N       2.39289926     -0.61835031     -0.30312109
C       1.23565972     -1.31619304     -0.30671355
C      -0.02602465     -0.75596923     -0.11160759
C      -1.24617660     -1.62643586     -0.13568451
H      -1.27074834      2.40448661      0.47375836
H      -2.06012533      1.19742439     -0.54613366
H      -1.90561650      0.93209825      1.21491160
H       1.08983698      2.44166623      0.27222331
H       3.23420242      1.25032814     -0.09541384
H       1.35809655     -2.38273232     -0.47813633
H      -1.76885311     -1.57632471      0.82473183
H      -1.92334178     -1.31108246     -0.93574787
H      -0.98826810     -2.67546365     -0.31636845
