27
O=C(O)CC(SC(CC(=O)O)C(=O)O)C(=O)O
O       3.93314947     -0.31683766      0.01149069
C       3.63807222     -0.57938682     -1.14219899
O       4.56526933     -1.03869017     -2.00373474
C       2.28115769     -0.46561166     -1.77716117
C       1.28952447      0.13936703     -0.78450645
S      -0.40762961      0.05539327     -1.51153166
C      -1.40442990     -0.18109464      0.03094495
C      -2.88966940     -0.12588832     -0.33657210
C      -3.69073218      0.58309979      0.71915767
O      -4.61578704      1.35191879      0.52867345
O      -3.34654725      0.24481963      1.98144938
C      -1.07431589     -1.53004187      0.68342779
O      -0.36901788     -2.40315679      0.19765607
O      -1.62432818     -1.68824021      1.91165836
C       1.62497215      1.59648825     -0.50933263
O       2.34480270      2.32702081     -1.17089782
O       1.01388337      2.07658177      0.59744063
H       5.39440344     -1.06767862     -1.48191553
H       1.97139311     -1.47808082     -2.06212035
H       2.37423232      0.15163081     -2.67854158
H       1.33809585     -0.40911997      0.16158684
H      -1.12086586      0.61993966      0.71977065
H      -3.05492603      0.44485652     -1.25889250
H      -3.32224769     -1.12313075     -0.47631509
H      -4.00135833      0.75426331      2.51919234
H      -2.19109236     -0.93808432      2.20486874
H       1.34399148      2.99966298      0.65207444
