53
O=C(NCc1ccc(OC(F)(F)F)cc1)C1c2ccccc2C(=O)N1CCc1ccc(F)cn1
O       0.25877084     -0.26567910      3.01075618
C      -0.02942649     -0.00165634      1.84424238
N       0.64242810      0.94624697      1.09802052
C       1.85097902      1.57677033      1.56982509
C       3.06086905      0.83125371      1.06789812
C       3.54442975     -0.28253969      1.76391504
C       4.64155599     -0.99717811      1.27882713
C       5.27179168     -0.62051124      0.08966241
O       6.32713867     -1.41103611     -0.26403010
C       7.01150925     -1.10103026     -1.46463762
F       6.18839455     -1.18275042     -2.53219287
F       7.55956943      0.13207370     -1.41097952
F       8.01017703     -1.99555099     -1.63719698
C       4.78904271      0.48434852     -0.61183400
C       3.68833451      1.20223940     -0.12817074
C      -1.09704701     -0.79989497      1.06355808
C      -0.53844213     -2.10228796      0.55957288
C       0.02619632     -3.15493178      1.26126193
C       0.48279761     -4.26291378      0.53833060
C       0.36781767     -4.31113320     -0.86337255
C      -0.20637444     -3.25077452     -1.56549380
C      -0.64408688     -2.16598263     -0.82960381
C      -1.29587776     -0.94051558     -1.30078061
O      -1.61128219     -0.70932555     -2.45141035
N      -1.51266765     -0.14550215     -0.18715529
C      -2.41404031      0.99792541     -0.20310844
C      -3.88378319      0.58068194     -0.16411458
C      -4.77979854      1.78797004     -0.22678372
C      -5.33149127      2.20080390     -1.44060024
C      -6.14006824      3.33538392     -1.46166722
C      -6.36738649      4.01786293     -0.27777965
F      -7.13905220      5.11122886     -0.26455765
C      -5.78137920      3.55233371      0.88446561
N      -4.98743406      2.45493423      0.93668647
H       0.45900766      0.95318209      0.10091090
H       1.85349461      2.60576952      1.19427946
H       1.85882602      1.62792326      2.66427118
H       3.06135853     -0.60503354      2.68509369
H       5.00045353     -1.86086762      1.83403141
H       5.23532708      0.81928503     -1.54401539
H       3.32231146      2.05369709     -0.69882724
H      -1.98194085     -0.96178521      1.68740768
H       0.12479651     -3.12331824      2.34332817
H       0.93573505     -5.09980441      1.06667009
H       0.72978521     -5.18391423     -1.40278023
H      -0.30804034     -3.27207965     -2.64537150
H      -2.21712615      1.55710077     -1.12614507
H      -2.16129430      1.65396782      0.63707191
H      -4.09463725      0.02830101      0.76011058
H      -4.11695605     -0.10654667     -0.98664433
H      -5.13612967      1.65185693     -2.35759095
H      -6.58765072      3.68591962     -2.38554174
H      -5.93948444      4.06548319      1.82705032
