56
Cc1cc(C)cc(OP(=O)(Oc2cc(C)cc(C)c2)Oc2cc(C)cc(C)c2)c1
C      -3.37119494      3.83052167     -2.04049030
C      -2.17387715      3.80848683     -1.13563325
C      -1.77000839      4.97204322     -0.46750053
C      -0.66531480      4.95697689      0.39233851
C      -0.25176612      6.20042121      1.12181589
C       0.01137064      3.75098305      0.60713502
C      -0.39513248      2.58230967     -0.03901833
O       0.33451151      1.46358598      0.24652806
P      -0.00305614     -0.02033725     -0.28957027
O      -0.04271275     -0.16726493     -1.78574227
O      -1.37814648     -0.38292801      0.47284457
C      -2.00658192     -1.59428239      0.41659411
C      -1.59609061     -2.65554763     -0.38714752
C      -2.29658178     -3.86966988     -0.36328138
C      -1.87124386     -5.00455814     -1.24869462
C      -3.43011483     -3.99372574      0.45105535
C      -3.86028646     -2.92539512      1.24703514
C      -5.05150744     -3.07729748      2.14549972
C      -3.13074235     -1.73124806      1.23270035
O       1.08832928     -0.94061356      0.46240866
C       2.43402671     -0.90262060      0.23192787
C       3.21313292     -1.71058756      1.06181238
C       4.60468334     -1.74838061      0.91820362
C       5.43361956     -2.64876084      1.78509958
C       5.20484686     -0.97989829     -0.08636379
C       4.43257566     -0.15705636     -0.91698752
C       5.08212284      0.63917187     -2.01104663
C       3.03990512     -0.13219740     -0.75810561
C      -1.48391414      2.60955780     -0.90771169
H      -3.49643497      4.81659324     -2.50002380
H      -4.27402704      3.58827530     -1.47153738
H      -3.25895106      3.10597006     -2.85391198
H      -2.31887734      5.89935179     -0.62234722
H       0.82594375      6.19933498      1.31614755
H      -0.47312175      7.09349979      0.52799930
H      -0.78341968      6.26878637      2.07584457
H       0.86043194      3.71637570      1.28631562
H      -0.73561632     -2.56643528     -1.04449219
H      -2.35240721     -4.91553983     -2.22748883
H      -2.14341562     -5.96887550     -0.80687854
H      -0.78476469     -5.00626280     -1.38589576
H      -3.98412964     -4.93078168      0.46279640
H      -5.78234936     -3.76796204      1.71184447
H      -4.73760577     -3.46060957      3.12122396
H      -5.55821912     -2.11708424      2.28854800
H      -3.43973369     -0.89668834      1.85831745
H       2.72764954     -2.31600224      1.82414813
H       5.52847980     -3.63399430      1.31839155
H       4.97777921     -2.76748904      2.77370055
H       6.43435501     -2.23108231      1.93767454
H       6.28386211     -1.02259605     -0.22440165
H       4.53114420      1.56690254     -2.19810935
H       6.10460812      0.91937470     -1.73681447
H       5.11175199      0.05174483     -2.93383144
H       2.45288069      0.48974804     -1.42823278
H      -1.81666488      1.71375755     -1.42469181
