30
COC(=O)c1ccccc1C(=O)c1ccccc1
C      -2.14805567      2.79375836     -0.51272494
O      -1.59648674      1.47991304     -0.59836723
C      -2.52527346      0.49380398     -0.54969978
O      -3.73727099      0.63230954     -0.55656519
C      -1.85202523     -0.81880206     -0.63062192
C      -2.40433078     -1.77306031     -1.49732526
C      -1.79901013     -3.02290533     -1.64516540
C      -0.64769294     -3.33264076     -0.92120469
C      -0.10156235     -2.39665977     -0.04149115
C      -0.70078730     -1.13609723      0.10029176
C      -0.15045799     -0.20842900      1.10662981
O      -0.86275724      0.10094181      2.05670018
C       1.23907774      0.31260922      0.98943528
C       1.84142656      0.86024821      2.12920954
C       3.14197329      1.36282068      2.06465128
C       3.84321049      1.32768180      0.86038458
C       3.24444891      0.79613997     -0.28155405
C       1.94303075      0.29146082     -0.22143084
H      -2.72848423      2.90993919      0.40808882
H      -2.76626196      3.00504155     -1.39069683
H      -1.32000699      3.50762067     -0.49126025
H      -3.30755459     -1.54189915     -2.05985734
H      -2.23264775     -3.75868889     -2.31916118
H      -0.18726419     -4.31261849     -1.02749869
H       0.77308178     -2.66391970      0.54785662
H       1.29814401      0.89693572      3.07180615
H       3.60457042      1.78498927      2.95338772
H       4.85508835      1.72276491      0.81020750
H       3.78994341      0.78212394     -1.22218780
H       1.49393482     -0.09538199     -1.13183670
