36
CN(C)C(=O)NC1CCCCCCC1
C       4.27948486      1.86941406     -0.87103565
N       3.19051096      0.91718329     -1.00778500
C       3.46577531     -0.22569803     -1.86818230
C       2.24190100      0.90328440      0.00815089
O       2.30679118      1.63048032      0.99521407
N       1.21756205      0.00974311     -0.18237874
C       0.11455721     -0.10239967      0.77149717
C      -0.87643000      1.06480201      0.62907023
C      -1.60722296      1.20152964     -0.70627908
C      -2.53776804      0.06379792     -1.12384411
C      -3.46832171     -0.44794321     -0.02399541
C      -3.03530802     -1.76939147      0.61419974
C      -1.76902417     -1.73782684      1.47267000
C      -0.47628348     -1.51804634      0.68578318
H       3.94257897      2.78542439     -0.37663142
H       5.07547531      1.41406523     -0.27399149
H       4.66181068      2.12914352     -1.86248905
H       3.77804024      0.13713231     -2.85183225
H       2.60487447     -0.88341766     -1.99638695
H       4.27637026     -0.80850782     -1.41943366
H       0.96602758     -0.11229439     -1.15066061
H       0.55589213     -0.00603192      1.77339836
H      -0.32748450      2.00338137      0.78494674
H      -1.60402881      1.03600830      1.44706153
H      -2.20822243      2.11941421     -0.65210224
H      -0.88164440      1.37477962     -1.51028458
H      -3.16182119      0.45380302     -1.93960562
H      -1.96944675     -0.75438827     -1.57631147
H      -3.64320913      0.31353869      0.74389291
H      -4.44851617     -0.63169069     -0.48441461
H      -3.85888358     -2.11011218      1.25531707
H      -2.92850315     -2.53358107     -0.16613981
H      -1.87273807     -1.02027176      2.29353228
H      -1.69508534     -2.72297027      1.95296333
H       0.28320183     -2.20021509      1.09513627
H      -0.59091214     -1.84213870     -0.35429463
