24
CCC(=O)OCc1ccc(Cl)cc1Cl
C       4.48254859     -0.58049311      0.12887418
C       2.99867453     -0.90190841      0.15489865
C       2.14815957      0.34464658      0.11664753
O       2.56713567      1.49266129      0.08767240
O       0.83238984     -0.00505319      0.12536762
C      -0.05810276      1.11051741      0.05084087
C      -1.46981523      0.57895901      0.02153612
C      -2.23294595      0.59627976      1.20257384
C      -3.53721711      0.09744619      1.21663830
C      -4.08841371     -0.42983123      0.05220190
Cl     -5.69511583     -1.04473859      0.07165391
C      -3.34816040     -0.46652670     -1.12562554
C      -2.04274762      0.03249750     -1.13951896
Cl     -1.17093212     -0.05352393     -2.62943097
H       4.74944906     -0.02863952     -0.77856692
H       4.76705293      0.03362466      0.98976633
H       5.07277278     -1.50159988      0.15552974
H       2.74663911     -1.52014092     -0.71318898
H       2.76247498     -1.45472309      1.07018251
H       0.14262969      1.71564566     -0.84146490
H       0.08427030      1.75200652      0.92973417
H      -1.81284267      0.99727945      2.12367069
H      -4.11411129      0.12052597      2.13798067
H      -3.78379236     -0.88491141     -2.02907357
