21
Cc1[nH]c(=O)[nH]c(=O)c1CC(=O)O
C       0.02353088      2.10778296     -0.95326951
C      -0.60327086      0.88300684     -0.34825747
N      -1.87302154      1.07095815      0.14610220
C      -2.61560517      0.11006023      0.76841941
O      -3.74529553      0.33565544      1.18876979
N      -2.02279509     -1.10843416      0.88594552
C      -0.78114241     -1.42238681      0.41954334
O      -0.31614987     -2.55285504      0.52934215
C      -0.01756395     -0.32592011     -0.24709790
C       1.34724224     -0.71990899     -0.74009342
C       2.31106372     -0.81621896      0.41985870
O       2.19761154     -0.31206178      1.52517467
O       3.42758602     -1.50068711      0.09542800
H       1.09211263      1.99413653     -1.14964821
H      -0.47136463      2.35706471     -1.89771634
H      -0.08147242      2.96251130     -0.27538436
H      -2.32068427      1.97838485      0.07892268
H      -2.54993386     -1.83730184      1.33918917
H       1.29472203     -1.69049937     -1.24714638
H       1.75266134     -0.00625389     -1.46220142
H       3.95176920     -1.50703296      0.92411939
