18
NC(=O)c1ccccc1N
N      -2.08628489      1.60752028      1.04045538
C      -1.76196528      0.67215961      0.09363312
O      -2.62965441      0.16309206     -0.60715111
C      -0.32718452      0.28494654     -0.01516868
C       0.67103260      1.23655285      0.25527603
C       2.01829101      0.88901798      0.15859593
C       2.37414062     -0.40799794     -0.19960359
C       1.38493193     -1.35326812     -0.48213085
C       0.02599019     -1.01200927     -0.44297005
N      -0.92702537     -2.03714863     -0.61038669
H      -1.46766961      1.79399830      1.81739818
H      -3.07733623      1.73826568      1.19984717
H       0.40953838      2.25662361      0.52295626
H       2.78902476      1.62674054      0.36765275
H       3.42272658     -0.69015595     -0.25448811
H       1.68305479     -2.36854903     -0.73280249
H      -1.85168509     -1.64951659     -0.83480544
H      -0.64992544     -2.75027192     -1.27630781
