38
CCN(CC)c1nc(NC(C)C)nc(OC)n1
C      -0.00244979     -1.89783456     -3.63830250
C      -0.66296323     -0.57356624     -3.28108663
N      -0.85010532     -0.43803197     -1.84331141
C      -2.01203515     -1.05465595     -1.21536305
C      -3.01078613      0.00602764     -0.77556166
C       0.21363528     -0.04693661     -1.04961744
N       0.06540116     -0.06163938      0.27165181
C       1.09948895      0.32568411      1.00679631
N       1.01819875      0.32980693      2.39592448
C      -0.28306953      0.67027115      2.96084087
C      -0.06529771      1.41281572      4.28150604
C      -1.09159096     -0.60200452      3.21565372
N       2.25272413      0.73028550      0.50975339
C       2.31146023      0.71447097     -0.81211463
O       3.51791126      1.14104243     -1.33012732
C       3.57249908      1.07589374     -2.74870451
N       1.33688781      0.34687372     -1.63498403
H       0.09508886     -1.98968591     -4.72459152
H      -0.59415856     -2.74561536     -3.27779905
H       0.99789869     -1.97939529     -3.20153715
H      -1.63896982     -0.51973760     -3.77952984
H      -0.08153485      0.26144730     -3.69104085
H      -1.72982720     -1.69271269     -0.36882760
H      -2.51415915     -1.72066576     -1.92826991
H      -2.58389885      0.67547786     -0.02219663
H      -3.32933648      0.61917553     -1.62527967
H      -3.89866427     -0.46617732     -0.34364348
H       1.79650482      0.90541059      2.70338174
H      -0.84637671      1.33998931      2.29771189
H      -1.02223868      1.67998694      4.74196325
H       0.49943894      2.33739723      4.11790334
H       0.49940275      0.80258218      4.99546766
H      -1.29387668     -1.14472524      2.28714674
H      -2.05600377     -0.36310060      3.67638261
H      -0.55597795     -1.28572391      3.88406424
H       3.44696475      0.04772524     -3.10623802
H       2.83480097      1.74416597     -3.20663438
H       4.56501435      1.41567882     -3.06037939
