12
O=C([O-])O.O=C([O-])[O-].[Na+].[Na+].[Na+]
O      -0.86402132      1.23034594     -0.03921383
C      -0.41452332      0.05267093      0.07724855
O      -1.26154374     -1.04675692     -0.10757267
O       0.92132960     -0.18758124      0.38933165
O      -0.30147956      1.27078180     -0.01888608
C      -0.01054994      0.04903737     -0.00066390
O      -0.99618091     -0.92913791     -0.05881664
O       1.30821041     -0.39068126      0.07836661
Na      0.00000000      0.00000000      0.00000000
Na      0.00000000      0.00000000      0.00000000
Na      0.00000000      0.00000000      0.00000000
H       1.61875879     -0.04867871     -0.31979370
