9
C[Se]C
C       1.59744060      0.05309226      0.07005262
Se      0.05864839     -0.49029376     -0.95101968
C      -1.60720101     -0.06974329     -0.05324876
H       2.20740861      0.72940328     -0.57590011
H       2.23103993     -0.84831963      0.23176821
H       1.35240089      0.58212156      1.00486842
H      -1.72906289     -0.64037208      0.87940530
H      -1.68199395      1.00991181      0.15145436
H      -2.42868056     -0.32580014     -0.75738035
