57
CC1C[C@H]2[C@@H]3CC[C@](O)(C(=O)CO)[C@@]3(C)C[C@H](O)[C@@H]2[C@@]2(C)C=CC(=O)C=C12
C      -3.40972471     -2.51386890      2.05384574
C      -2.68039762     -1.26543089      1.53847088
C      -1.23490688     -1.63638390      1.18050985
C      -0.40525375     -0.42223932      0.72396022
C       0.98975428     -0.86792219      0.25820637
C       1.84526925     -1.69381179      1.21026905
C       3.26778704     -1.58934539      0.62977009
C       3.22037775     -0.49959632     -0.48286819
O       3.07182873     -1.16340997     -1.74350469
C       4.50712380      0.35267347     -0.52197879
O       5.29337848      0.42592259      0.42806507
C       4.80801611      1.11293358     -1.80945171
O       5.85668993      2.05556476     -1.62301764
C       1.91976220      0.30178436     -0.14456008
C       2.20414148      1.28797061      1.02029151
C       1.23634446      1.03413861     -1.31994899
C      -0.21239049      1.47730538     -1.01636749
O      -0.18965654      2.59114414     -0.13477061
C      -1.10735180      0.33458782     -0.45187036
C      -2.59255136      0.73285218     -0.10092282
C      -2.72093912      1.78399178      1.02566877
C      -3.26464199      1.35043493     -1.32400344
C      -4.34363790      0.86215189     -1.94703345
C      -4.99186363     -0.37059529     -1.47251181
O      -5.97576307     -0.83019168     -2.03843687
C      -4.40519410     -1.03397827     -0.29019031
C      -3.31837229     -0.55688823      0.34735696
H      -3.44186591     -3.30714945      1.29885318
H      -2.89977211     -2.91864202      2.93534141
H      -4.43627329     -2.27605799      2.35314692
H      -2.66250367     -0.56328457      2.38133523
H      -1.23473258     -2.40081929      0.39115563
H      -0.75688412     -2.09180031      2.05688040
H      -0.30649789      0.24621818      1.58523997
H       0.82550651     -1.50332776     -0.62785602
H       1.81624186     -1.29009673      2.22860808
H       1.51663497     -2.73705229      1.25920978
H       3.57500743     -2.56186314      0.22825747
H       3.95996513     -1.34390228      1.44208610
H       3.72142007     -1.88873568     -1.78780667
H       3.92831504      1.65892105     -2.14741202
H       5.11929426      0.40061773     -2.57798358
H       6.38037733      1.73544356     -0.86032700
H       1.29826526      1.66169775      1.50054652
H       2.76018445      2.16047637      0.65826366
H       2.80358436      0.83492396      1.81666417
H       1.20400362      0.38148920     -2.20078603
H       1.82610008      1.91428749     -1.59769748
H      -0.64145743      1.83508245     -1.95898151
H       0.31776368      3.30322894     -0.56242640
H      -1.17671836     -0.39600623     -1.27618176
H      -3.75077590      1.83275778      1.40342779
H      -2.47516833      2.79533031      0.68331760
H      -2.07489758      1.56825712      1.88153320
H      -2.84915312      2.28403348     -1.69800569
H      -4.79330188      1.34719319     -2.80451600
H      -4.92049012     -1.94101477      0.00113580
