28
CCCCC(C#N)c1ccccc1
C      -4.55929585      0.31310426     -0.34999157
C      -3.17186919      0.45386996      0.25565379
C      -2.10344661     -0.17586010     -0.63904677
C      -0.70595591     -0.02927597     -0.02240806
C       0.40727662     -0.60629330     -0.92242838
C       0.31253492     -2.08006067     -1.01812359
N       0.21421262     -3.23485968     -1.09375773
C       1.77980982     -0.16382514     -0.43106147
C       2.27188228     -0.55663057      0.82549844
C       3.52952225     -0.13490485      1.26074136
C       4.31121372      0.68410745      0.44969256
C       3.83761947      1.08205576     -0.79819984
C       2.58055031      0.66182447     -1.23721071
H      -4.82375315     -0.74064585     -0.48418362
H      -4.61387962      0.80821741     -1.32477974
H      -5.30715392      0.77015691      0.30553487
H      -3.15999457     -0.02377467      1.24226368
H      -2.95214950      1.51712711      0.40689613
H      -2.12163380      0.30541465     -1.62443361
H      -2.33886703     -1.23557518     -0.79129798
H      -0.69507661     -0.51431232      0.96282124
H      -0.51431035      1.03817457      0.15190798
H       0.26207286     -0.20336990     -1.93407805
H       1.68427622     -1.20107721      1.47710136
H       3.90082896     -0.44932097      2.23303094
H       5.29108176      1.00973110      0.78922826
H       4.44943491      1.71945068     -1.43175425
H       2.23506939      0.98655204     -2.21665483
