31
CCOC(=O)c1ccc(OC)c(OC)c1C(=O)[O-]
C       4.62513210     -0.66992432      0.64009856
C       3.85076367     -0.89790900     -0.64354742
O       2.56412487     -0.29779695     -0.49890469
C       1.68478001     -0.62056887     -1.47451038
O       1.94935949     -1.14860962     -2.54537036
C       0.34851495     -0.07544921     -1.13870341
C      -0.30668904      0.64097839     -2.15198518
C      -1.54722195      1.22441559     -1.90602344
C      -2.14828134      1.08602752     -0.65465809
O      -3.36653645      1.70737782     -0.52950613
C      -3.52249779      2.41519129      0.69924487
C      -1.53367391      0.29779110      0.33599986
O      -2.20140960      0.08705085      1.51829191
C      -2.82390396     -1.19745814      1.51631958
C      -0.25926199     -0.25959726      0.11700677
C       0.42371427     -1.08086176      1.16014041
O       0.70856810     -0.51418066      2.25757029
O       0.65230225     -2.29180584      0.85134588
H       5.62516909     -1.10725402      0.57694198
H       4.09830317     -1.11449291      1.49103263
H       4.71887354      0.40062579      0.84984697
H       4.37734311     -0.42799472     -1.48081192
H       3.75200273     -1.97430789     -0.82587916
H       0.16145212      0.75558001     -3.12654547
H      -2.04299666      1.79652108     -2.68429642
H      -2.57616083      2.79919175      1.09640198
H      -4.16734280      3.27679155      0.50246930
H      -4.03034934      1.78659886      1.43591966
H      -2.09938905     -2.01261975      1.42824210
H      -3.56695073     -1.26752018      0.71387987
H      -3.34773802     -1.31579048      2.46998944
