41
C#CCN1C(=O)COc2cc(F)c(N3C(=O)C4=C(CCCC4)C3=O)cc21
C      -3.36959309      3.31520297      0.09822542
C      -3.51005091      2.33178282      0.77361919
C      -3.68324509      1.12632447      1.60098024
N      -3.88376308     -0.05655374      0.77276774
C      -5.18702651     -0.47975963      0.54286847
O      -6.18099066      0.04739149      1.04279435
C      -5.32254521     -1.61625479     -0.46253394
O      -4.26977061     -2.55563345     -0.55944276
C      -3.03241024     -1.98664049     -0.44807774
C      -1.98039229     -2.73890795     -0.96247102
C      -0.67620372     -2.26402540     -0.87029278
F       0.30186636     -3.07941607     -1.28700111
C      -0.38651162     -1.03306235     -0.26839375
N       0.94411017     -0.53710703     -0.18606737
C       1.40475956      0.33266406      0.76956225
O       0.83723881      0.83327053      1.72596401
C       2.81894457      0.57729615      0.47953725
C       3.14068299     -0.10604100     -0.61707337
C       4.47641401     -0.10512175     -1.26003585
C       5.35909542      1.01560453     -0.68200469
C       5.21041464      1.15176716      0.84205977
C       3.75475153      1.41314000      1.26827118
C       1.93766096     -0.79023662     -1.09998765
O       1.90944933     -1.36401919     -2.17444483
C      -1.46392740     -0.30687237      0.27739553
C      -2.79137801     -0.76756737      0.19658236
H      -3.25201979      4.18884826     -0.50074040
H      -2.82899562      0.96932706      2.26871356
H      -4.54768090      1.26917627      2.25984006
H      -5.49348938     -1.17303343     -1.45129817
H      -6.22373328     -2.17982567     -0.19617115
H      -2.16423128     -3.70568756     -1.42157481
H       4.95638343     -1.07526826     -1.08591865
H       4.38807351      0.02822091     -2.34376921
H       5.08659370      1.96977962     -1.15167697
H       6.40722008      0.82460459     -0.93905734
H       5.56677933      0.22845780      1.31723974
H       5.84977986      1.96304212      1.20834230
H       3.51095978      2.46999893      1.10855643
H       3.64990568      1.20962578      2.33956377
H      -1.26312504      0.65550858      0.73679856
