15
ClC(Cl)c1ccccc1
Cl     -2.89404707      0.25493048      1.54548635
C      -2.19365241     -0.21022150     -0.02332787
Cl     -2.91134817      0.75513071     -1.33523664
C      -0.68858370     -0.07850325     -0.00949598
C      -0.05629598      1.16006242      0.20177190
C       1.33619518      1.25973482      0.21071592
C       2.11807938      0.12520091      0.00901878
C       1.50973556     -1.10988174     -0.20178771
C       0.11686643     -1.21246328     -0.21123496
H      -2.48993313     -1.24818484     -0.20177669
H      -0.64812604      2.06029477      0.36164326
H       1.80989868      2.22435455      0.37536859
H       3.20218958      0.20404026      0.01619736
H       2.12144611     -1.99487853     -0.35913247
H      -0.33242442     -2.18961579     -0.37820983
