36
O=C([O-])CN(CCN(CC(=O)[O-])CC(=O)O)CC(=O)O.[Na+].[Na+]
O       4.91971197     -1.55249789      0.55715818
C       4.22640896     -1.30867978     -0.46504293
O       4.61308779     -0.91031320     -1.61118527
C       2.68950767     -1.54852120     -0.35532034
N       1.89188832     -0.28071881     -0.37286724
C       0.44779867     -0.57406282     -0.18526501
C      -0.30731954      0.61978938      0.47149448
N      -1.74143601      0.41917920      0.78701456
C      -1.94975841     -0.59203448      1.86946900
C      -3.43958788     -1.08036746      1.96905416
O      -4.34221859     -0.23293197      1.67183478
O      -3.58523183     -2.27495932      2.37578764
C      -2.34619054      1.72380563      1.17278923
C      -3.27876851      2.22177051      0.07146523
O      -3.04254141      3.20280519     -0.62795342
O      -4.43744915      1.51790184     -0.03938496
C       2.15570389      0.58797747     -1.54884907
C       1.92597268     -0.05272273     -2.92166668
O       0.91164457      0.11109168     -3.59383552
O       2.96606012     -0.77581482     -3.39357367
Na      0.00000000      0.00000000      0.00000000
Na      0.00000000      0.00000000      0.00000000
H       2.51262823     -2.06139176      0.59218352
H       2.37576355     -2.22592212     -1.15288541
H      -0.02461099     -0.86582377     -1.12806571
H       0.36515106     -1.43264878      0.48392122
H      -0.24881486      1.46832190     -0.21944745
H       0.22964611      0.91587415      1.38486542
H      -1.34843226     -1.49113128      1.67486658
H      -1.63282779     -0.19057127      2.84009133
H      -1.58369571      2.50074614      1.34918008
H      -2.91284552      1.69504636      2.11435838
H      -4.43628806      0.75799366      0.62804152
H       1.52332975      1.48220060     -1.50875379
H       3.16578273      1.01267207     -1.52158297
H       3.73793096     -0.78606234     -2.75137561
