61
CC(C)COCC(CN(Cc1ccccc1)c1ccccc1)N1CCCC1
C      -4.73909335     -2.83366157      1.08632877
C      -3.44470548     -2.22198333      0.55291673
C      -2.66487631     -3.25723458     -0.26046632
C      -3.75091843     -0.97363597     -0.28789358
O      -2.55888112     -0.32815408     -0.73241920
C      -2.01414435      0.57481636      0.23800251
C      -0.73224258      1.28066493     -0.29410700
C       0.38601619      0.20914607     -0.48204499
N       0.79507704     -0.41972957      0.79631119
C       1.24823291     -1.82056418      0.69448858
C       2.54974497     -1.97291588     -0.06799152
C       2.54489711     -2.31759265     -1.42865412
C       3.74391029     -2.45702640     -2.13023469
C       4.96046205     -2.25078099     -1.48192962
C       4.97958676     -1.90366016     -0.13255103
C       3.78182687     -1.76657512      0.57080529
C       1.42413935      0.34602652      1.78338638
C       1.29871417     -0.02444001      3.13292147
C       1.90985395      0.70611110      4.15627169
C       2.66397626      1.83245324      3.84909989
C       2.80115070      2.22529021      2.52202963
C       2.18449042      1.49004956      1.50320797
N      -0.95639047      2.05168270     -1.55236689
C      -2.10417621      2.95950819     -1.49187361
C      -1.90288468      3.86792120     -2.69481741
C      -0.40416883      3.84854688     -2.95944339
C       0.17534623      2.91258687     -1.90972852
H      -5.29380666     -2.10614872      1.68927227
H      -5.38996538     -3.16324373      0.26868574
H      -4.52663360     -3.70098555      1.72149047
H      -2.82013217     -1.94025537      1.40846821
H      -1.72712659     -2.84021241     -0.63665039
H      -2.41776064     -4.12819787      0.35611182
H      -3.24551122     -3.60750430     -1.12039037
H      -4.30741267     -1.26398004     -1.18695572
H      -4.38417628     -0.26647521      0.26238502
H      -1.78202893      0.02793711      1.15806806
H      -2.77154700      1.32375362      0.49765794
H      -0.42981200      1.98921708      0.48775009
H       0.00419150     -0.56254127     -1.16327118
H       1.26864027      0.62314746     -0.97940293
H       1.35166347     -2.29284461      1.68006742
H       0.46796790     -2.40753792      0.19426245
H       1.60392022     -2.47355918     -1.95215516
H       3.72800933     -2.72742494     -3.18308467
H       5.89310080     -2.35787647     -2.02907163
H       5.92684067     -1.73684728      0.37387011
H       3.81164640     -1.49085646      1.62313164
H       0.69411834     -0.88705176      3.40132491
H       1.78987844      0.39415306      5.18994892
H       3.14250126      2.40259239      4.64001460
H       3.39397198      3.10096612      2.27238169
H       2.34003453      1.81748503      0.48016642
H      -3.06148755      2.43423191     -1.56391625
H      -2.09667403      3.55696171     -0.57038592
H      -2.27053776      4.88161868     -2.50283130
H      -2.43611372      3.47538032     -3.56831792
H      -0.21198578      3.46821409     -3.96937825
H       0.03436039      4.84945610     -2.88893610
H       0.52533641      3.49666169     -1.04925237
H       1.02158656      2.35491735     -2.32030580
