25
CC(C)(Oc1ccc(Cl)cc1)C(=O)O
C      -2.48357527     -0.94777489     -1.32329650
C      -1.46789345     -0.21128755     -0.42753334
C      -1.76432301     -0.59610467      1.03064312
O      -0.20247598     -0.73496703     -0.84516136
C       0.98086714     -0.33423694     -0.30145580
C       2.07412257     -1.12200411     -0.68175437
C       3.35984282     -0.84368786     -0.21176404
C       3.55763794      0.23568101      0.64195237
Cl      5.13544629      0.58896244      1.22794073
C       2.48134866      1.03371020      1.02146523
C       1.19400502      0.74980605      0.54786319
C      -1.69230808      1.28711122     -0.71095878
O      -1.03700537      2.00600484     -1.44909284
O      -2.76577465      1.80445872     -0.07372005
H      -3.51675223     -0.66123312     -1.09816241
H      -2.39203763     -2.03437721     -1.20916136
H      -2.29762355     -0.72827345     -2.38186145
H      -1.18845397      0.00633897      1.73904793
H      -1.50631769     -1.64451222      1.21869429
H      -2.82106081     -0.45200564      1.28216290
H       1.92144135     -1.96442604     -1.35301863
H       4.19372793     -1.46876286     -0.51793329
H       2.63506655      1.88424332      1.68053631
H       0.39388002      1.41110662      0.85716088
H      -2.79178461      2.73623020     -0.38038268
