20
C=C(C)C(=O)OCC1CO1
C      -2.24270539     -1.21974372     -0.76243839
C      -2.17889020     -0.02973220     -0.14056757
C      -3.40620871      0.73973246      0.24572187
C      -0.88493211      0.61989567      0.22160343
O      -0.81717002      1.68353734      0.82078986
O       0.17500754     -0.10911059     -0.20484053
C       1.44293022      0.45657913      0.14164007
C       2.51798031     -0.42247010     -0.40649250
C       3.88541366     -0.46423905      0.22256969
O       2.91780668     -1.50090529      0.44853645
H      -1.35468088     -1.78156621     -1.03698240
H      -3.19690227     -1.67305038     -1.01245315
H      -3.41391849      1.72012900     -0.24209338
H      -3.44108200      0.88844555      1.33008737
H      -4.32441813      0.21860715     -0.04591166
H       1.53585019      1.45212178     -0.30754095
H       1.52276101      0.54134863      1.23223248
H       2.42235619     -0.61470112     -1.46620480
H       4.73357936     -0.70479977     -0.40606586
H       4.10722305      0.19992173      1.04841455
