25
OCC[C@@H]1CCCC[NH2+]1
O       2.37859849      0.09462160     -1.40788731
C       2.78909409      0.08400891     -0.03852739
C       1.69852728     -0.56350326      0.81263653
C       0.32055900      0.07193241      0.59657624
C      -0.74784174     -0.49740619      1.53600650
C      -2.17550405     -0.34838688      0.99395634
C      -2.28790282      0.77400237     -0.03244867
C      -1.34535745      0.57821856     -1.21754258
N      -0.13004840     -0.17566612     -0.80753097
H       3.18127766      0.32599483     -1.92351982
H       3.72293134     -0.48022489      0.04826136
H       2.96627717      1.11768724      0.27408645
H       1.98313579     -0.49101672      1.86875202
H       1.64373040     -1.63143291      0.56438781
H       0.39411718      1.16044190      0.71471672
H      -0.66879669      0.01607116      2.50243642
H      -0.56336384     -1.55900219      1.74343593
H      -2.87008560     -0.17661677      1.82397910
H      -2.48076807     -1.29172213      0.52331280
H      -2.05834057      1.72881096      0.45784192
H      -3.31895281      0.85676515     -0.39445496
H      -1.01805131      1.53958238     -1.62586557
H      -1.81590416     -0.00557248     -2.01458807
H       0.67311659      0.05585910     -1.43200963
H      -0.27044745     -1.18344604     -0.95378486
