43
COC(=O)c1c(Cl)nn(C)c1S(=O)(=O)NC(=O)Nc1nc(OC)cc(OC)n1
C       2.29770538     -1.14890770      3.60351520
O       3.08217345     -0.86298227      2.44518555
C       2.36136400     -0.70327083      1.30205192
O       1.13916662     -0.77771811      1.24840497
C       3.18250332     -0.42591245      0.14466959
C       4.47798969      0.11075087      0.05060899
Cl      5.49484440      0.62554826      1.30734663
N       4.88859234      0.24157761     -1.20912432
N       3.84736502     -0.20506521     -1.94072075
C       3.96377134     -0.15059350     -3.38162800
C       2.79937380     -0.65415281     -1.17793678
S       1.33101523     -1.37918297     -1.83175847
O       1.23331379     -2.63752698     -1.12373324
O       1.44506394     -1.34997841     -3.27028809
N       0.05491976     -0.45454171     -1.36391168
C      -0.06644083      0.90829811     -1.57723103
O       0.74294252      1.53312989     -2.25283101
N      -1.10630385      1.56048428     -0.99490784
C      -2.09267930      1.05760104     -0.16669838
N      -2.09523938     -0.23969430      0.17026150
C      -3.08332294     -0.63876519      0.99042539
O      -3.16261045     -1.95889666      1.38777584
C      -2.09873218     -2.77299515      0.90229136
C      -4.05613870      0.19511659      1.47320930
C      -3.95601939      1.49831282      1.06374809
O      -4.92458169      2.36044417      1.53971671
C      -4.77189750      3.69859012      1.07683581
N      -2.98917964      1.95745217      0.24984803
H       1.74074785     -2.08155433      3.46940681
H       1.61851982     -0.31842222      3.82001696
H       2.97740759     -1.27063843      4.45127094
H       3.93802070     -1.16991820     -3.77292936
H       4.91888683      0.31068789     -3.64989189
H       3.15148211      0.46304959     -3.77684792
H      -0.51403233     -0.86608554     -0.62283798
H      -1.17004797      2.54785045     -1.18229149
H      -1.13285080     -2.42822053      1.28534623
H      -2.26093407     -3.78980325      1.27272029
H      -2.09771771     -2.81269031     -0.19235426
H      -4.84238807     -0.14873314      2.12880929
H      -4.85883885      3.75291655     -0.01385799
H      -5.58291865      4.29460042      1.50618279
H      -3.82429523      4.12983935      1.41771339
