38
CCOC(=O)C1CCn2c(C(=O)c3ccccc3)ccc21
C       5.13116521      2.44941553      1.15522019
C       4.56758695      1.06901405      1.43029174
O       3.83057375      0.64970089      0.27643366
C       3.24233524     -0.57624062      0.40187676
O       3.33893501     -1.29886419      1.38625440
C       2.45895929     -0.91286976     -0.85664854
C       2.01825529     -2.40336604     -0.88334178
C       0.60366423     -2.43191752     -0.27471535
N       0.13983145     -1.07600048     -0.52145425
C      -1.06929451     -0.45648743     -0.47792929
C      -2.31451298     -1.12245124     -0.13717238
O      -2.43536714     -2.34651614     -0.13146881
C      -3.51444427     -0.31836858      0.21652988
C      -3.42951135      0.78457846      1.07544391
C      -4.58109713      1.50410604      1.40053149
C      -5.81698310      1.11716830      0.88112636
C      -5.90828365      0.00557067      0.04319460
C      -4.76007544     -0.71689910     -0.28438240
C      -0.80304224      0.86100266     -0.85839933
C       0.59827574      1.01303529     -1.08573577
C       1.14611130     -0.21692389     -0.85191509
H       5.70509895      2.81438441      2.01151981
H       4.32509908      3.15903662      0.94108746
H       5.78192556      2.43171432      0.27471232
H       3.90316495      1.10796384      2.30080016
H       5.38619304      0.36607830      1.62082366
H       3.06881037     -0.68785337     -1.73713013
H       1.95675226     -2.73420909     -1.92912309
H       2.70260594     -3.08391428     -0.36739192
H       0.61515799     -2.58694015      0.80781335
H      -0.04879372     -3.14760668     -0.77884340
H      -2.47770965      1.08080151      1.50931330
H      -4.51661467      2.36123714      2.06647750
H      -6.71320532      1.67670378      1.13876360
H      -6.87400318     -0.30246559     -0.34991125
H      -4.83601095     -1.59032836     -0.92873474
H      -1.54145630      1.64540700     -0.97123894
H       1.11990402      1.91330369     -1.38409997
