12
CC(C)=CCl
C       1.04614072     -0.91040720      0.15289413
C      -0.17462340     -0.05016445     -0.02373172
C       0.09358869      1.43000645      0.00029677
C      -1.42321520     -0.50956239     -0.19252714
Cl     -1.88438627     -2.15816660     -0.24177934
H       1.76766785     -0.70642434     -0.64531692
H       1.52417162     -0.69085954      1.11343386
H       0.83101694     -1.98185901      0.13259257
H      -0.82032072      2.01908675     -0.13144520
H       0.54060184      1.71928546      0.95704648
H       0.78439830      1.70369495     -0.80391081
H      -2.28504037      0.13536993     -0.31755268
