26
N=C(N)NCCCC(N)C(=O)O
N       3.93854402      0.44977322     -1.83927228
C       3.31245462      0.55657120     -0.72858101
N       3.87205628      1.24180115      0.28602432
N       2.11027397      0.04904236     -0.38067077
C       1.16486154     -0.49477189     -1.34004666
C      -0.07298174     -1.05392348     -0.63748650
C      -1.00158145      0.04484565     -0.10117254
C      -2.25416149     -0.51883156      0.58399482
N      -3.08721367     -1.26071038     -0.39029584
C      -3.07650812      0.61135524      1.21724330
O      -4.21955540      0.92761930      0.92302877
O      -2.42229554      1.25682212      2.20257112
H       3.38728137     -0.10926725     -2.49037783
H       3.88438301      0.70734394      1.14557460
H       4.82164369      1.49171998      0.02357659
H       1.67809358      0.61281697      0.34261035
H       0.87783252      0.27432843     -2.06615728
H       1.64404303     -1.31278038     -1.89036557
H       0.22871797     -1.71583246      0.18363597
H      -0.61975230     -1.66829103     -1.36247164
H      -1.29447652      0.71373087     -0.92151717
H      -0.45233190      0.66827535      0.61386750
H      -1.97576117     -1.21251802      1.38554593
H      -3.92246547     -1.59458064      0.09692980
H      -3.45549870     -0.59101558     -1.07066981
H      -3.06560212      1.92647688      2.51850280
