23
Clc1ccccc1Oc1ccc(Cl)c(Cl)c1Cl
Cl      2.03800844     -1.61440786      2.47720783
C       2.22957137     -0.61533665      1.08336229
C       3.42229123     -0.69438097      0.36165545
C       3.60546953      0.09862832     -0.77300151
C       2.60068875      0.97541672     -1.18312424
C       1.40673374      1.05710263     -0.46480882
C       1.21265339      0.24698930      0.65995508
O       0.05446926      0.34326441      1.40152474
C      -1.12122305      0.08414540      0.72654178
C      -1.31432658     -1.15419583      0.10657028
C      -2.52002788     -1.42510955     -0.53595118
C      -3.53996772     -0.46807035     -0.54931112
Cl     -5.00098416     -0.89128437     -1.37501097
C      -3.36350833      0.77093120      0.08905695
Cl     -4.63893715      1.95119592      0.07089969
C      -2.14697958      1.04317696      0.73815083
Cl     -1.86969702      2.55654714      1.54379156
H       4.21416760     -1.36777711      0.67982264
H       4.53672014      0.03966796     -1.33190690
H       2.75193694      1.60394284     -2.05796245
H       0.64208416      1.76283707     -0.77798199
H      -0.53646884     -1.91398814      0.13059384
H      -2.66267425     -2.38929504     -1.02007378
