24
C=COCCCCOC=C
C       4.44710544      1.41499296     -0.22039589
C       3.50113833      1.05844811     -1.09634398
O       2.33741618      0.37862809     -0.87984848
C       2.05158567     -0.02209468      0.46045735
C       0.71498612     -0.76142757      0.48111976
C      -0.45327696      0.14720930      0.09634173
C      -1.78211026     -0.60266885      0.13142925
O      -2.81918321      0.32008914     -0.20646038
C      -4.09769895     -0.15772435     -0.23513374
C      -4.54350211     -1.39438509      0.01239010
H       4.39197220      1.18765594      0.83675188
H       5.32172368      1.95993973     -0.56186283
H       3.58065756      1.29911693     -2.15170610
H       2.83562575     -0.70081596      0.81700194
H       2.00086112      0.85468084      1.11731762
H       0.54785079     -1.17033258      1.48430512
H       0.75643928     -1.60387971     -0.21997755
H      -0.50313444      1.00677709      0.77648827
H      -0.30441123      0.56624397     -0.90641057
H      -1.95393277     -1.00254619      1.13805361
H      -1.76098494     -1.42421660     -0.59473739
H      -4.77181148      0.64872299     -0.50559175
H      -3.89202068     -2.21582569      0.28274376
H      -5.60529508     -1.60966985     -0.05593174
