20
O=C1C(O)=C(O)OC1C(O)CO
O       0.85052459     -1.04087866      1.74086289
C       0.95790863     -0.48388612      0.65934577
C       2.17931203      0.20142642      0.26227067
O       3.33454217      0.27670100      0.97505888
C       1.86849504      0.74228574     -0.91194744
O       2.73790384      1.51068500     -1.63820310
O       0.58689024      0.52299790     -1.39538974
C      -0.06782259     -0.36068178     -0.43514377
C      -1.35606333      0.31244869      0.03659485
O      -2.13448150      0.71176215     -1.11163498
C      -2.23577366     -0.61826583      0.87354134
O      -2.64513619     -1.73201174      0.08002202
H       3.16956420     -0.23564883      1.79413692
H       3.57284136      1.53989331     -1.13259576
H      -0.22816563     -1.32054784     -0.93584910
H      -1.13365878      1.22309585      0.60465054
H      -1.51968344      1.17860725     -1.71250260
H      -1.72339688     -0.99107446      1.76339691
H      -3.14529828     -0.09848521      1.19291723
H      -3.06850184     -1.33842283     -0.70953153
