32
CCOP(=O)(OCC)OCC(C)C
C      -2.72115446     -3.21284963     -0.74144624
C      -2.68587170     -1.86697631     -0.04787683
O      -1.34713348     -1.57754379      0.31345255
P      -1.07787397     -0.12513359      0.95544544
O      -1.98859773      0.24812430      2.08181991
O      -1.14893567      0.86070719     -0.31792568
C      -1.01198592      2.24938528     -0.06910849
C      -2.37168727      2.91071456     -0.15971561
O       0.48839823     -0.14947239      1.32662011
C       1.40483233     -0.64349902      0.36409628
C       2.81095618     -0.12868803      0.68787303
C       2.87399078      1.39815906      0.60452878
C       3.83822172     -0.75505026     -0.25244637
H      -2.33087037     -3.99631911     -0.08345182
H      -3.74161542     -3.47424931     -1.03501302
H      -2.08784841     -3.20278044     -1.63472867
H      -3.30662335     -1.89154502      0.85322479
H      -3.06382777     -1.08842119     -0.71820792
H      -0.55689295      2.43116026      0.91034253
H      -0.34226512      2.66197072     -0.82977002
H      -3.05648310      2.49468330      0.58612327
H      -2.82318037      2.73073564     -1.14093832
H      -2.29160541      3.98967070     -0.00066397
H       1.10640805     -0.33252182     -0.64318658
H       1.38407582     -1.73787065      0.40455091
H       3.05857956     -0.41198091      1.71883758
H       2.60727533      1.75194514     -0.39724480
H       2.18823989      1.86201066      1.32097000
H       3.88306615      1.75750432      0.83286635
H       3.82567297     -1.84696932     -0.17000073
H       4.84942090     -0.41350257     -0.00726726
H       3.63531457     -0.49139776     -1.29606133
