25
C#CC1(OC(N)=O)CCCCC1
C       0.77733055      2.18027629      1.70169480
C       0.61315359      1.19968961      1.02712915
C       0.41747585     -0.00911015      0.19189575
O       1.69096823     -0.67138422     -0.03487616
C       2.65933984     -0.04354955     -0.72965059
N       3.75459197     -0.83504283     -0.79317748
O       2.61453349      1.06223354     -1.24026896
C      -0.41547209     -1.04522691      0.98308505
C      -1.88324083     -0.65707381      1.15152684
C      -2.53820919     -0.36348062     -0.19224776
C      -1.76395855      0.69192488     -0.97179177
C      -0.29228174      0.31044907     -1.14055450
H       0.93168325      3.05473971      2.29048172
H       4.59889605     -0.44712535     -1.18582551
H       3.78796083     -1.67666673     -0.23999218
H       0.03178671     -1.21952452      1.97106718
H      -0.36366499     -2.01498156      0.46817060
H      -2.42128729     -1.47122291      1.65052892
H      -1.96730369      0.22095168      1.80282949
H      -3.56874151     -0.02562054     -0.03538783
H      -2.59142346     -1.28679639     -0.78222074
H      -2.22097218      0.82463198     -1.95922831
H      -1.84090300      1.65771993     -0.45795195
H       0.21067309      1.12662976     -1.67176664
H      -0.22093494     -0.56244037     -1.80346913
