26
C=CC(C)(C#N)Cc1ccccc1
C      -1.48727120      2.31307269      2.73752416
C      -1.59762009      1.94473143      1.45229196
C      -1.10325815      0.65053200      0.79021292
C      -0.56221342     -0.37070853      1.80975311
C      -2.26897592      0.04681766      0.09228579
N      -3.18297024     -0.40836144     -0.46196511
C      -0.01282743      1.05525715     -0.24513706
C       0.69875150     -0.07412387     -0.96048941
C       1.94538357     -0.52767412     -0.50451384
C       2.60082738     -1.57437420     -1.15490600
C       2.01979708     -2.17688910     -2.26826873
C       0.78499894     -1.73099572     -2.73410330
C       0.12804953     -0.68348721     -2.08625882
H      -1.00803578      1.69790014      3.49187163
H      -1.88961409      3.26630569      3.07161517
H      -2.09953547      2.64601120      0.78147550
H      -1.30540732     -0.59682823      2.58476978
H      -0.31628289     -1.32820818      1.33557687
H       0.34233162     -0.00201726      2.30691196
H       0.74993924      1.66996521      0.25536014
H      -0.44511466      1.71575808     -1.01189691
H       2.41712350     -0.06989035      0.36226398
H       3.56579175     -1.91991235     -0.79316108
H       2.52923116     -2.99257516     -2.77446364
H       0.33058646     -2.19922385     -3.60372001
H      -0.83368504     -0.35108168     -2.47302907
