44
CCCNC(=O)c1nnc2c(-c3cccc(C)c3)cccc2c1N
C       4.90126424      2.20279326      1.99792834
C       5.39604524      0.76373256      1.96667736
C       4.38996106     -0.21741221      2.56468561
N       3.16880285     -0.29770150      1.79484873
C       3.04942974     -1.07426857      0.65736550
O       3.94173369     -1.81340757      0.24973503
C       1.73313081     -0.96488174     -0.05345977
N       0.80102578     -0.23453784      0.59549780
N      -0.44467401     -0.09758441      0.04758005
C      -0.76841912     -0.65025087     -1.13864446
C      -2.05300539     -0.46305529     -1.69251504
C      -3.09650944      0.31135958     -0.98835892
C      -3.62777119      1.48145529     -1.55437452
C      -4.63076618      2.20166611     -0.90302173
C      -5.11739040      1.76553384      0.32801500
C      -4.59688459      0.61287775      0.92405923
C      -5.13469962      0.12439891      2.23625520
C      -3.60011208     -0.11216045      0.25388977
C      -2.36500872     -1.01794253     -2.94841816
C      -1.42217929     -1.74466251     -3.65857346
C      -0.15725135     -1.93612864     -3.11395907
C       0.19316257     -1.41211048     -1.84741258
C       1.47450104     -1.61319349     -1.26655434
N       2.49297819     -2.29523776     -1.98598374
H       4.66870777      2.51530725      3.02092243
H       5.67132219      2.87438597      1.60524573
H       4.00258292      2.32899845      1.38615731
H       5.62887328      0.48634571      0.93205726
H       6.33090581      0.70129534      2.53565039
H       4.11687341      0.07836721      3.58293418
H       4.83833193     -1.21599850      2.61099392
H       2.38715129      0.30836655      2.03019442
H      -3.25571746      1.84460819     -2.51014103
H      -5.03110123      3.10490584     -1.35581899
H      -5.90145899      2.33419111      0.82267210
H      -4.35389994     -0.38192973      2.81349623
H      -5.95935328     -0.57439687      2.06562334
H      -5.49851015      0.95861905      2.84529407
H      -3.20548146     -1.01928286      0.70948404
H      -3.35781612     -0.87946033     -3.37399922
H      -1.66884714     -2.15941916     -4.63271338
H       0.56618716     -2.49487142     -3.70331296
H       2.17734088     -3.13842646     -2.45291651
H       3.31654529     -2.48363116     -1.39708512
