48
CN(C)CCn1ncnc1-c1cc2c(s1)-c1ccc(C(N)=O)cc1OCC2
C       3.72172617      3.04885696     -0.72214597
N       3.67610149      2.10157569      0.39666354
C       4.71731736      2.44417367      1.37006785
C       3.83157541      0.72061509     -0.10875993
C       3.54050639     -0.35084436      0.94860361
N       3.50018908     -1.67628692      0.36453587
N       4.66967520     -2.32028603      0.14396422
C       4.24374928     -3.51463864     -0.26314936
N       2.89154259     -3.65994231     -0.32117853
C       2.43012410     -2.47896876      0.04871737
C       1.02636552     -2.18379078      0.11772879
C       0.03605240     -3.09190123      0.41605934
C      -1.28925157     -2.53391504      0.39152121
C      -1.27748676     -1.18865500      0.03009839
S       0.34815806     -0.67091810     -0.24415858
C      -2.40078216     -0.21645565     -0.11311289
C      -2.22303491      1.00443558     -0.80060949
C      -3.23958354      1.96634841     -0.89088228
C      -4.47300043      1.73582333     -0.28562693
C      -5.57956107      2.72450759     -0.34273389
N      -5.23738273      4.04025784     -0.49249421
O      -6.75037962      2.38831650     -0.22645669
C      -4.69166084      0.52529334      0.36972427
C      -3.68013769     -0.44435365      0.43385634
O      -4.05464249     -1.58465582      1.09857445
C      -3.81026548     -2.75930987      0.32163000
C      -2.48814397     -3.36957117      0.74336566
H       2.91151358      2.84558230     -1.43160811
H       3.57240421      4.07406396     -0.36533531
H       4.67456886      3.00556062     -1.26241970
H       5.72493760      2.34122183      0.95168599
H       4.64519619      1.81525721      2.26303793
H       4.59380029      3.47651289      1.71646987
H       3.13386354      0.57237302     -0.94330952
H       4.83718150      0.57306893     -0.52618473
H       2.59681263     -0.16818167      1.46960922
H       4.32441673     -0.36990158      1.71512254
H       4.93838490     -4.30298682     -0.52317117
H       0.25259108     -4.12714542      0.65814346
H      -1.28115989      1.24054150     -1.29124678
H      -3.05111215      2.87605301     -1.45408812
H      -4.30426601      4.37475901     -0.30085781
H      -5.99621119      4.70334491     -0.39322746
H      -5.65775652      0.32177519      0.82782389
H      -3.86302241     -2.56961161     -0.76107006
H      -4.61870311     -3.46297749      0.55438446
H      -2.38737073     -4.35450366      0.27139797
H      -2.48383892     -3.52051679      1.83078511
