21
Cc1ccc(C(=O)O)cc1C
C      -2.64537755      0.36870267     -0.76350132
C      -1.18613712      0.34487294     -0.39663607
C      -0.41875362      1.50921604     -0.55959686
C       0.93811639      1.52491882     -0.22991794
C       1.54813157      0.37199049      0.26907778
C       2.98501433      0.33633470      0.63400783
O       3.58706731     -0.62608890      1.07342602
O       3.60643250      1.51211271      0.43162180
C       0.79108060     -0.79444163      0.43521596
C      -0.57490611     -0.82148851      0.10672065
C      -1.35260518     -2.09484073      0.30010254
H      -2.85079463     -0.36067166     -1.55334410
H      -2.95037126      1.35240250     -1.13613109
H      -3.26141295      0.14310444      0.11264992
H      -0.87486220      2.41832643     -0.94692937
H       1.50707492      2.44100476     -0.36671138
H       4.52929108      1.33806680      0.71170778
H       1.27326919     -1.69016050      0.82492621
H      -1.75951141     -2.44060232     -0.65535575
H      -0.72064652     -2.89592383      0.69809949
H      -2.17009934     -1.93683522      1.01056789
