28
Cc1cc(Cl)c(Cl)c(Cl)c1Cc1ccc(Cl)cc1
C      -2.21815293     -1.55572359      0.96690246
C      -2.10329516     -0.18675197      0.34566807
C      -3.03479411      0.79055761      0.72862361
C      -3.00284021      2.07498206      0.18190654
Cl     -4.20119435      3.19435628      0.73724365
C      -2.03892668      2.41060733     -0.77373344
Cl     -2.01613965      4.01091670     -1.45575575
C      -1.09874262      1.44008128     -1.17418385
Cl      0.08417088      1.84257885     -2.38999456
C      -1.11312149      0.13355579     -0.61574764
C      -0.07676146     -0.90368394     -1.03293548
C       1.31667437     -0.68099463     -0.47697310
C       1.53656712     -0.44398341      0.88886668
C       2.83225775     -0.26581236      1.38149394
C       3.91924037     -0.33249918      0.51418694
Cl      5.51369229     -0.11455970      1.12231937
C       3.72240215     -0.57901268     -0.84138586
C       2.42705110     -0.75749118     -1.33350637
H      -1.27781393     -1.84679990      1.44382499
H      -2.99128007     -1.58268646      1.74251992
H      -2.49108971     -2.29323191      0.20551178
H      -3.80048037      0.54861959      1.46529351
H      -0.05266040     -0.94134007     -2.13013801
H      -0.38426569     -1.91533135     -0.74602883
H       0.70411971     -0.38983054      1.58583945
H       2.98499217     -0.07593660      2.44051288
H       4.56915327     -0.63254744     -1.52030818
H       2.29123765     -0.94803860     -2.39654421
