34
CS(=O)(=O)c1ccc(C(=O)C2C(=O)CCCC2=O)c(Cl)c1
C       5.62183352      0.15295560      1.19377916
S       4.95613096      0.13305706     -0.45012402
O       5.38036586     -1.09092343     -1.10059986
O       5.20520703      1.42603114     -1.05699677
C       3.20181939      0.00440386     -0.18312015
C       2.42209283      1.16415944     -0.14012578
C       1.04359333      1.05797017      0.04953757
C       0.45513153     -0.20779104      0.18291409
C      -1.00080182     -0.28252836      0.40779369
O      -1.42646869     -0.68491878      1.48668900
C      -1.90544205      0.17433450     -0.70400903
C      -2.75839674     -0.96529592     -1.19741284
O      -2.35173622     -1.72030034     -2.08182978
C      -4.07293259     -1.21889722     -0.49728445
C      -4.84366688      0.08487016     -0.36482540
C      -4.04356156      1.11894807      0.41132108
C      -2.71143656      1.36796391     -0.25953420
O      -2.23809167      2.50441013     -0.33100876
C       1.23795739     -1.36678962      0.12385440
Cl      0.55641922     -2.94705451      0.24265859
C       2.61732771     -1.26111782     -0.06703913
H       5.35320122     -0.77666395      1.69900171
H       6.70835468      0.23347384      1.11806963
H       5.22228197      1.01601691      1.72963586
H       2.87489279      2.14809917     -0.25622129
H       0.44129587      1.96445871      0.09963590
H      -1.31354005      0.50545514     -1.56736636
H      -4.65579767     -1.93391382     -1.08753637
H      -3.87183271     -1.66722254      0.48092322
H      -5.07398248      0.47653183     -1.36382501
H      -5.79750550     -0.09961298      0.14151253
H      -4.60034561      2.06130783      0.44908203
H      -3.86035793      0.78850646      1.43895010
H       3.22799143     -2.15992359     -0.13549378
