33
Cc1ccc2cc3c(ccc4ccccc43)cc2c1
C      -5.60415117      0.02562173      0.48016395
C      -4.12417240      0.26504882      0.51948365
C      -3.59348859      1.30396067      1.28698738
C      -2.21217666      1.50347199      1.34542908
C      -1.33153236      0.66185543      0.64653442
C       0.06331863      0.84800298      0.69401348
C       0.97809009      0.01240607      0.00244484
C       0.42021281     -1.04465430     -0.75716973
C       1.25641200     -1.91124005     -1.46618929
C       2.63880863     -1.75256916     -1.43884718
C       3.22619196     -0.72218315     -0.70140253
C       4.62536713     -0.58917236     -0.69456885
C       5.24762570      0.42480609      0.02814356
C       4.47572467      1.31881745      0.75349875
C       3.08269465      1.19656413      0.75437499
C       2.41037434      0.17793277      0.03154464
C      -0.97200668     -1.23421503     -0.80725477
C      -1.85620574     -0.39456704     -0.11626059
C      -3.24881929     -0.58598952     -0.16793696
H      -5.90551978     -0.39703108     -0.48407084
H      -6.15576100      0.96271315      0.60987925
H      -5.89232438     -0.66729511      1.27661586
H      -4.25021508      1.96739160      1.84507133
H      -1.82687553      2.32393205      1.94670336
H       0.43581836      1.67421693      1.29335331
H       0.83864372     -2.72673110     -2.05305756
H       3.25435360     -2.44872240     -2.00469502
H       5.24674884     -1.28213650     -1.25838137
H       6.33038804      0.51388226      0.02296473
H       4.95073058      2.11447092      1.32142319
H       2.52707040      1.92362732      1.33934304
H      -1.37797511     -2.05380470     -1.39819396
H      -3.65735040     -1.40841088     -0.75236363
