29
CCCOP(=O)(OCC)OCC
C      -2.99692643      0.11395415     -0.94748538
C      -2.78732524     -1.23392901     -0.27200125
C      -1.69603825     -1.18438508      0.78962407
O      -0.45344064     -0.87695447      0.17986445
P       0.76695998     -0.54109899      1.17834489
O       0.96625787     -1.54353439      2.27058741
O       2.01946170     -0.35801522      0.18255013
C       2.56820194     -1.54418811     -0.36362021
C       3.64613156     -1.16697900     -1.35835154
O       0.44577467      0.95535106      1.67855208
C       0.40030600      1.99375973      0.71667591
C      -0.29859615      3.18984305      1.32926392
H      -2.09723446      0.43571786     -1.48119357
H      -3.81308486      0.04891192     -1.67394658
H      -3.25550867      0.88402391     -0.21366257
H      -2.52047931     -1.96920272     -1.03998224
H      -3.72733897     -1.55751919      0.18819025
H      -1.61369497     -2.15965261      1.28033237
H      -1.93531787     -0.43197124      1.54897095
H       2.99481556     -2.14997812      0.44194615
H       1.78136941     -2.11938583     -0.86195228
H       4.09747462     -2.05878468     -1.80200162
H       4.43093470     -0.57817047     -0.87204807
H       3.23144901     -0.54515284     -2.15866646
H      -0.13971033      1.66550868     -0.17638885
H       1.42260840      2.26121448      0.43227405
H      -0.34585240      4.02027303      0.61932658
H      -1.31721158      2.92605048      1.63275548
H       0.22601470      3.52429363      2.23035427
