36
c1ccc(Nc2ccc(Nc3ccccc3)cc2)cc1
C      -6.24077101      0.81971251     -1.25477993
C      -5.01259735      1.37867807     -1.59695695
C      -3.84372198      0.94443495     -0.96397389
C      -3.88276483     -0.04524680      0.02450516
N      -2.73047425     -0.53903876      0.66053802
C      -1.38455167     -0.59110480      0.26261616
C      -0.98335709     -0.59197957     -1.07472117
C       0.37406116     -0.60847120     -1.42219103
C       1.37320396     -0.61947964     -0.44219669
N       2.71983914     -0.59550477     -0.84039202
C       3.88122691     -0.11885340     -0.20783813
C       5.11638612     -0.69964548     -0.53138932
C       6.29528479     -0.28803599      0.09701541
C       6.25511758      0.71089838      1.06537425
C       5.03766172      1.29523097      1.40344923
C       3.86080982      0.87845046      0.77351482
C       0.97215332     -0.60323127      0.89508540
C      -0.38531222     -0.59178535      1.24257341
C      -5.12857265     -0.60044626      0.35213083
C      -6.29959101     -0.17132476     -0.27928638
H      -7.14920738      1.15612666     -1.74706194
H      -4.95990569      2.15709581     -2.35346319
H      -2.90242652      1.41716900     -1.23051755
H      -2.90321216     -0.92299519      1.58230074
H      -1.72282127     -0.60985212     -1.87048816
H       0.64066075     -0.60429496     -2.47592240
H       2.88528849     -0.98924687     -1.75935951
H       5.16891996     -1.49269099     -1.27294038
H       7.24161768     -0.75199376     -0.16764557
H       7.16973277      1.03374305      1.55529541
H       4.99962203      2.07990404      2.15435070
H       2.92856037      1.37064904      1.03659634
H       1.71120603     -0.62924416      1.69100995
H      -0.65171599     -0.57504599      2.29622963
H      -5.19591249     -1.38703051      1.09934561
H      -7.25443704     -0.61555032     -0.01136736
