28
CCCCNCCCC
C      -4.88569704      0.03588853     -0.20027469
C      -3.56183713      0.07656540      0.54627449
C      -2.37736202     -0.11190236     -0.40234137
C      -1.04883528     -0.06991347      0.35596605
N       0.05884429     -0.26327198     -0.57993053
C       1.34887526     -0.21962374      0.11067756
C       2.47867961     -0.42060358     -0.90273856
C       3.86441079     -0.49004575     -0.25589253
C       4.29473629      0.81280081      0.40020618
H      -4.93731130      0.83084830     -0.95107725
H      -5.71829973      0.17252941      0.49687203
H      -5.02102615     -0.92500569     -0.70692781
H      -3.55580543     -0.70942964      1.31040258
H      -3.47238610      1.03680583      1.06748095
H      -2.47656669     -1.07221343     -0.92424957
H      -2.39461480      0.67467433     -1.16747008
H      -1.03902041     -0.86072579      1.11536403
H      -0.94994284      0.89497601      0.86766431
H       0.03070608      0.45959483     -1.29870994
H       1.39473788     -1.01116138      0.86776063
H       1.46580557      0.74540143      0.61580872
H       2.31164975     -1.35767093     -1.44969073
H       2.46359633      0.38600104     -1.64673854
H       4.59625212     -0.74734496     -1.03096404
H       3.89065611     -1.29773680      0.48478798
H       4.24652458      1.64499739     -0.30911808
H       3.66643612      1.05493729      1.26223438
H       5.32679413      0.73062890      0.75612238
