76
CCCC[N+](CCCC)(CCCC)Cc1ccccc1.O=S(=O)([O-])c1ccc(O)c2ccccc12
C      -2.18458650      4.38564054     -1.04462027
C      -0.89636616      3.62369244     -0.77656083
C      -1.17019387      2.14982518     -0.46086040
C       0.14603780      1.40863790     -0.19960788
N      -0.01962117     -0.09022693      0.18022415
C      -1.01688745     -0.29409583      1.34818162
C      -0.70881723      0.53721120      2.59783466
C      -1.78114662      0.30896508      3.66754173
C      -1.49746736      1.11777720      4.92347697
C      -0.53568188     -0.84783548     -1.07681825
C      -0.81591952     -2.33623021     -0.84651212
C      -1.11557020     -3.03607709     -2.17500435
C      -1.41465467     -4.51296341     -1.97248191
C       1.38401063     -0.63764846      0.61530663
C       2.49254323     -0.61627958     -0.41237696
C       3.31240619      0.51639816     -0.55494176
C       4.33240339      0.54466947     -1.50762905
C       4.55601108     -0.56094706     -2.32278892
C       3.76883712     -1.69979869     -2.17896757
C       2.74820351     -1.73103244     -1.22653902
O       3.68383187     -0.19974162     -1.67043060
S       2.86423569     -0.88709600     -0.67430183
O       2.45417487     -2.23803045     -1.04719078
O       3.30829495     -0.71214762      0.70597259
C       1.28329595      0.02957257     -0.69970404
C       1.18018870      1.10378452     -1.59668987
C       0.01431598      1.85336256     -1.64756663
C      -1.04137025      1.53120761     -0.80202328
O      -2.12703635      2.36979652     -0.87206315
C      -0.98990300      0.43159788      0.08971629
C      -2.09037373      0.06170944      0.90213928
C      -2.02300415     -1.01287221      1.78823020
C      -0.85486925     -1.74962663      1.87903760
C       0.23637243     -1.41816037      1.07482213
C       0.20466114     -0.33620571      0.15830556
H      -2.84721718      4.35432288     -0.17388807
H      -2.72034842      3.96179551     -1.89994386
H      -1.96519013      5.43453569     -1.26704078
H      -0.37031351      4.09237259      0.06333582
H      -0.24353823      3.70161298     -1.65379937
H      -1.83533647      2.09821053      0.40607530
H      -1.70484183      1.70868362     -1.30748987
H       0.70225456      1.88770524      0.61352584
H       0.76211413      1.44299561     -1.10457505
H      -2.01676641     -0.06920760      0.96089988
H      -0.98706842     -1.35692571      1.61218457
H       0.26331613      0.25825392      3.01659913
H      -0.66913240      1.60578246      2.36718232
H      -2.76490656      0.59024587      3.27394510
H      -1.82689184     -0.75491799      3.92799357
H      -0.53298675      0.83935375      5.35990034
H      -2.27420900      0.93817005      5.67331719
H      -1.47884204      2.18996684      4.70371736
H       0.19294325     -0.68883683     -1.87808854
H      -1.47204943     -0.36879985     -1.37791777
H       0.02370463     -2.83981690     -0.36202137
H      -1.68463496     -2.45599239     -0.18913382
H      -0.25845987     -2.93372394     -2.85067661
H      -1.97322691     -2.55838360     -2.66265921
H      -2.28619349     -4.65163699     -1.32484940
H      -0.56212744     -5.02674267     -1.51686203
H      -1.62588485     -4.99211894     -2.93357775
H       1.23357155     -1.65536722      0.99234729
H       1.70313161     -0.03643112      1.47391129
H       3.18086126      1.38963797      0.08119087
H       4.96376041      1.42533541     -1.60934312
H       5.35591102     -0.54131676     -3.06029624
H       3.96122171     -2.56978186     -2.80422460
H       2.17383555     -2.64866252     -1.12659492
H       2.01449154      1.35737480     -2.24588307
H      -0.06206729      2.69463240     -2.32869739
H      -2.49151465      2.42548336      0.02526672
H      -3.03397936      0.59533326      0.83590252
H      -2.88227758     -1.27656560      2.39699596
H      -0.78008234     -2.59173127      2.56078213
H       1.13261484     -2.03167745      1.16737965
