14
NC(CS)C(=O)O
N      -0.92203226      0.39793534      1.19968363
C      -0.60016193     -0.21493318     -0.13131688
C       0.72175655     -0.99621932     -0.15566249
S       2.10617839     -0.10194333      0.63573634
C      -0.61089704      0.88954813     -1.19938670
O      -0.21469509      0.76668549     -2.34732058
O      -1.17155804      2.03095947     -0.71833358
H      -1.13488054     -0.36565039      1.84859375
H      -0.03414637      0.77294049      1.56738933
H      -1.42715557     -0.88591781     -0.39259903
H       0.59979477     -1.93837687      0.38940667
H       1.01707431     -1.24242898     -1.18064161
H       3.07285914     -0.95297720      0.25813244
H      -1.40213632      1.84037816      0.22631873
