30
O=C1/C(=C2/Nc3ccccc3C2=O)Nc2ccccc21
O       1.40608095      1.83704779     -1.71468451
C       1.62101508      0.95817882     -0.91029775
C       0.67080367      0.01765915     -0.19665524
C      -0.66738028      0.08849203     -0.15459458
N      -1.50746112     -0.86412141      0.44152413
C      -2.82570254     -0.58136457      0.06207330
C      -3.96775257     -1.29462262      0.36265452
C      -5.20006646     -0.77501134     -0.05735072
C      -5.27622754      0.44964189     -0.75005921
C      -4.12092722      1.17907392     -1.03269525
C      -2.92134018      0.64056966     -0.61022045
C      -1.55275940      1.15758731     -0.76278875
O      -1.27477558      2.23315983     -1.24394358
N       1.44914748     -0.94341934      0.46596883
C       2.78943217     -0.54287720      0.39598115
C       3.88882485     -1.15182413      0.96508650
C       5.15516889     -0.61665593      0.69129253
C       5.30684343      0.49927159     -0.15553445
C       4.19441560      1.09874081     -0.74698569
C       2.95982629      0.55236820     -0.45586950
H      -1.19440496     -1.82690261      0.40343403
H      -3.92365680     -2.22657096      0.91546050
H      -6.11605768     -1.32034895      0.16254699
H      -6.24590788      0.83249078     -1.06173351
H      -4.15401986      2.12668029     -1.55943472
H       1.09434488     -1.27468710      1.35523032
H       3.78648471     -2.02520475      1.59974894
H       6.03877604     -1.07507154      1.13161055
H       6.30157396      0.89283689     -0.35456023
H       4.28570207      1.95488350     -1.40667720
