23
O=P([O-])([O-])[O-].O=P([O-])([O-])[O-].O=P([O-])([O-])[O-].O=P([O-])([O-])[O-].[Si+4].[Si+4].[Si+4]
O       0.00713556      1.51211536     -0.27824666
P       0.00000007     -0.00000060      0.00000004
O       1.43031780     -0.55049159     -0.12295793
O      -0.90972815     -0.70448476     -1.01983522
O      -0.52772528     -0.25713841      1.42103977
O      -0.02182654      1.51306583     -0.27224500
P      -0.00000099     -0.00000088      0.00000066
O       1.33293421     -0.58962900     -0.48947735
O      -1.16312928     -0.67213441     -0.74788823
O      -0.14797740     -0.25130154      1.50960992
O      -0.00479823      1.44995450     -0.51144915
P       0.00000123      0.00000112     -0.00000048
O       1.44930442     -0.45454190      0.23849430
O      -0.65841931     -0.91457677     -1.04594311
O      -0.78608811     -0.08083695      1.31889844
O      -0.05110636      1.51737172     -0.24277571
P      -0.00000001      0.00000040      0.00000045
O       1.39475427     -0.53139497     -0.36911581
O      -1.05996451     -0.69433976     -0.87082268
O      -0.28368340     -0.29163740      1.48271376
Si      0.00000000      0.00000000      0.00000000
Si      0.00000000      0.00000000      0.00000000
Si      0.00000000      0.00000000      0.00000000
