18
NC(=O)C(N)C(O)C(=O)O
N       1.77521347     -1.42711880      0.17481127
C       1.54121865     -0.14519835      0.56852819
O       2.47047408      0.61631747      0.82598860
C       0.06622783      0.27567307      0.68171096
N      -0.02423091      1.56021584      1.45007584
C      -0.53066935      0.48135392     -0.71877010
O      -1.59404365      1.46674642     -0.66775689
C      -1.15088414     -0.82301116     -1.20322335
O      -0.58886349     -1.90932262     -1.18577053
O      -2.41339750     -0.64106764     -1.66275316
H       1.05361595     -2.00765882     -0.25552979
H       2.73681909     -1.70590996      0.02517379
H      -0.48084868     -0.48553870      1.25003578
H       0.73736963      2.16129679      1.10272921
H       0.28904675      1.35812500      2.40597979
H       0.19966434      0.82810714     -1.45673997
H      -1.45228164      1.91739845      0.19973032
H      -2.63443043      0.31611275     -1.53421997
