72
CC(C)CCCCCCOC(=O)c1ccccc1C(=O)OCCCCCCC(C)C
C       5.55097734     -2.12518535     -2.42987915
C       4.92350060     -3.19446721     -1.53473930
C       5.98990986     -4.20931982     -1.11443444
C       4.25250431     -2.59380780     -0.28503263
C       3.06500033     -1.68289871     -0.61238431
C       2.28081556     -1.24550695      0.62882642
C       3.07175040     -0.43733917      1.66170427
C       3.72370719      0.84573378      1.13443087
C       2.74281070      1.85495912      0.53861736
O       1.69084721      2.16333402      1.46406783
C       1.96151031      3.15981342      2.34128844
O       3.01973449      3.74854361      2.48690232
C       0.80016264      3.34448698      3.23230963
C       1.05446382      3.37193080      4.61200467
C      -0.00020540      3.48847437      5.51858279
C      -1.31157938      3.58480094      5.05454445
C      -1.56995929      3.57941782      3.68208181
C      -0.51363109      3.46436976      2.76330576
C      -0.80142784      3.54559528      1.31600018
O      -0.13694891      4.18230497      0.51772494
O      -1.89223562      2.78795659      1.04848113
C      -2.26410051      2.69724669     -0.33363937
C      -1.46873751      1.60755683     -1.05067399
C      -1.45395632      0.25165097     -0.33588513
C      -2.82444176     -0.34265884     -0.00404551
C      -3.69648780     -0.59587215     -1.23597347
C      -5.03409491     -1.23002444     -0.83766199
C      -6.01148440     -1.39036543     -2.01644221
C      -5.49845350     -2.37504999     -3.06878111
C      -7.37654942     -1.85259735     -1.49964743
H       6.26734669     -1.51044975     -1.87611992
H       6.08288691     -2.58598881     -3.26979643
H       4.78894195     -1.46529162     -2.85396066
H       4.16589674     -3.72963551     -2.12111316
H       6.77430880     -3.73693426     -0.51210631
H       5.54457250     -5.01718584     -0.52217611
H       6.46302025     -4.66363624     -1.99237600
H       4.99934851     -2.03806561      0.29491926
H       3.89946853     -3.41298607      0.35525954
H       2.37585086     -2.21887526     -1.27632237
H       3.40207793     -0.79923555     -1.16280159
H       1.41242192     -0.66285432      0.30206158
H       1.87475169     -2.13671807      1.12414767
H       2.39807197     -0.18467501      2.48998531
H       3.85318578     -1.07019284      2.09957684
H       4.24759605      1.31500820      1.97651747
H       4.49054709      0.60313221      0.39042705
H       2.27013744      1.44727629     -0.36082082
H       3.26684952      2.76638273      0.22463528
H       2.07606890      3.29335642      4.98086064
H       0.20220325      3.50315420      6.58723433
H      -2.13287676      3.67578550      5.76227045
H      -2.59592832      3.68030569      3.33317269
H      -3.33387712      2.46697320     -0.36220963
H      -2.14437751      3.66406149     -0.83693253
H      -0.42652511      1.93510152     -1.14856164
H      -1.85178854      1.49403320     -2.07091659
H      -0.88771531      0.34747104      0.59887471
H      -0.89665730     -0.46028209     -0.95718596
H      -2.66354208     -1.29324538      0.51883129
H      -3.35359463      0.30795059      0.70086398
H      -3.88796976      0.34589883     -1.76251683
H      -3.15666741     -1.25533892     -1.92513153
H      -5.50470077     -0.60172349     -0.07109959
H      -4.85004979     -2.20633365     -0.37218201
H      -6.14844288     -0.41289430     -2.49611845
H      -4.57527912     -2.01802168     -3.53659549
H      -6.23668357     -2.50802804     -3.86693188
H      -5.29926729     -3.35803636     -2.62766651
H      -8.09269438     -1.94666166     -2.32284357
H      -7.30471804     -2.82466601     -0.99952294
H      -7.78559868     -1.13101748     -0.78301289
