54
CC(=O)O[C@H]1CC[C@@]2(C)C(=CC[C@H]3[C@@H]4CCC(=O)[C@@]4(C)CC[C@@H]32)C1
C       7.19852869     -0.79954678      0.85968870
C       5.77909483     -0.57816019      1.28411590
O       5.34692572     -0.82078466      2.40139854
O       5.05815638     -0.07587768      0.24509853
C       3.66720357      0.19282155      0.51281577
C       3.20172817      1.21560691     -0.52385965
C       1.70786081      1.50782257     -0.39205924
C       0.79756382      0.24734565     -0.47710141
C       0.82062192     -0.30766957     -1.92141028
C       1.35484339     -0.83649672      0.45698184
C       0.58341133     -1.53600121      1.30879661
C      -0.89873151     -1.38429522      1.43993501
C      -1.53617783     -0.58741164      0.29241892
C      -2.94809241     -0.12751565      0.66353306
C      -3.99273478     -1.15828945      1.07711863
C      -5.28606534     -0.33075761      1.11770535
C      -5.00366301      0.79360528      0.13508527
O      -5.80507389      1.67605810     -0.14168734
C      -3.62100742      0.65857523     -0.47716609
C      -3.79860971     -0.10286582     -1.80328538
C      -2.83236674      1.94916822     -0.67221049
C      -1.36584736      1.64367938     -1.02512565
C      -0.66544816      0.66158342     -0.04299331
C       2.84647918     -1.09604766      0.39801255
H       7.64534100      0.14874191      0.55063710
H       7.23223942     -1.52564442      0.04360205
H       7.77140385     -1.19570961      1.70303059
H       3.55581379      0.63378059      1.51272341
H       3.43886961      0.86468310     -1.53590339
H       3.77188806      2.14479292     -0.39934905
H       1.43131562      2.23042731     -1.16911414
H       1.54758242      2.01306073      0.57018955
H       0.10679289     -1.12720868     -2.05351035
H       0.58230672      0.46764430     -2.65663817
H       1.80430424     -0.69882496     -2.20194453
H       1.03763354     -2.27614304      1.96593199
H      -1.35283177     -2.38180225      1.47827098
H      -1.10415831     -0.90469594      2.40503442
H      -1.58776775     -1.24515187     -0.58279974
H      -2.83992080      0.54606660      1.53187880
H      -3.78061068     -1.60517334      2.05336390
H      -4.06858460     -1.97184848      0.34755080
H      -5.44685658      0.09977520      2.11023012
H      -6.15043391     -0.91933292      0.80311717
H      -4.43183219     -0.98997797     -1.69366175
H      -4.29179231      0.53784540     -2.54435089
H      -2.84969087     -0.43088044     -2.23562222
H      -3.28204105      2.56245934     -1.46262474
H      -2.86762261      2.56019845      0.23914188
H      -0.81867658      2.59274365     -1.05158590
H      -1.33999731      1.24686186     -2.04419773
H      -0.57069406      1.22062197      0.90252305
H       3.15715377     -1.79353574      1.18573901
H       3.09226679     -1.60832015     -0.54085307
