23
O=C1CN(/N=C/c2ccc([N+](=O)[O-])o2)C(=O)N1
O      -5.52828904     -0.24398113      0.25938559
C      -4.35425759     -0.09350295     -0.04339859
C      -3.17149348     -0.28394469      0.88233293
N      -2.08290184      0.01801445     -0.01835148
N      -0.79456437     -0.18455595      0.39604738
C       0.18139132      0.24197220     -0.34089597
C       1.53998574      0.00392175      0.06825271
C       2.08071079     -0.66471378      1.15423480
C       3.49111138     -0.57510563      1.03593451
C       3.71282638      0.14384246     -0.11399343
N       4.91905859      0.56010902     -0.75713161
O       5.97637118      0.22112617     -0.20822520
O       4.82159353      1.22081040     -1.79858067
O       2.54682274      0.50402818     -0.71447264
C      -2.54867590      0.26523666     -1.31924416
O      -1.90306155      0.43686038     -2.34049619
N      -3.90845497      0.25649739     -1.27655738
H      -3.10515794     -1.32029012      1.22055159
H      -3.18868154      0.43536515      1.70320579
H       0.05414823      0.81439637     -1.27274417
H       1.51296140     -1.15694991      1.93352753
H       4.24381345     -0.97952201      1.69922530
H      -4.49525651      0.38038559     -2.08374243
