54
COc1cc2ncnc(N3CCN(C(=O)Nc4ccc([N+](=O)[O-])cc4)CC3)c2cc1OC
C      -8.18775164      0.06081274     -0.03963415
O      -7.10349047     -0.41175139     -0.82662265
C      -5.83529962     -0.03560503     -0.45942385
C      -5.53837476      0.78710911      0.63342173
C      -4.23414358      1.13560687      0.96137882
N      -4.03742197      1.94188960      2.00790578
C      -2.77215866      2.27481438      2.27835624
N      -1.68524525      1.86017031      1.61986024
C      -1.88524591      1.02273685      0.58643681
N      -0.75697239      0.52637975     -0.10315048
C      -0.42555344     -0.87381901      0.28451550
C       0.42071828     -0.93238922      1.57244980
N       1.62318898     -0.10398933      1.44594717
C       2.74312002     -0.71115604      0.86985228
O       2.70757931     -1.86147635      0.44423190
N       3.85789537      0.09803877      0.87488692
C       5.09737264     -0.14957254      0.25460758
C       5.29665426     -1.14904142     -0.70289054
C       6.55317839     -1.33234698     -1.29268576
C       7.61746075     -0.50252992     -0.92510563
N       8.93673461     -0.68929528     -1.54139649
O       9.05718671     -1.58516303     -2.38888771
O       9.85266218      0.06311534     -1.17878311
C       7.43006951      0.50886382      0.02377799
C       6.16981675      0.68212458      0.60601395
C       1.29405034      1.30414234      1.17549608
C       0.41966072      1.43222565     -0.09444760
C      -3.18270501      0.63656572      0.18457737
C      -3.47668333     -0.17945835     -0.93763261
C      -4.79051730     -0.52069844     -1.26062596
O      -5.15248137     -1.31034198     -2.32135713
C      -4.12113499     -1.78173856     -3.17732457
H      -8.25076555      1.15349274     -0.07000362
H      -9.11173291     -0.33697922     -0.47029299
H      -8.11721410     -0.30441416      0.99017864
H      -6.32604106      1.18818547      1.26345103
H      -2.61170494      2.94396985      3.11674775
H      -1.32370769     -1.48977939      0.40896413
H       0.14007521     -1.31669934     -0.54452625
H      -0.15069136     -0.55662961      2.42917531
H       0.69674823     -1.96919165      1.79403731
H       3.84183538      0.81525645      1.58493139
H       4.48656989     -1.80192059     -1.01748831
H       6.67728793     -2.12184884     -2.03137588
H       8.24593939      1.16532706      0.31945273
H       6.04160894      1.47314981      1.34144777
H       0.77933815      1.68948290      2.06094716
H       2.19512000      1.90858144      1.04156009
H       1.03403693      1.16410973     -0.96377904
H       0.11743042      2.47572855     -0.24867815
H      -2.64728277     -0.52322266     -1.54770466
H      -4.58873246     -2.37524023     -3.96886964
H      -3.59194960     -0.95012193     -3.65416563
H      -3.42833717     -2.43545933     -2.63729855
