15
ClCc1ccccc1
Cl      3.03238862      0.62524633      1.00618677
C       2.17585529     -0.30106785     -0.24180061
C       0.68992665     -0.12061517     -0.10900430
C      -0.06245774     -0.97901936      0.70608350
C      -1.44120889     -0.80424481      0.83667863
C      -2.08069819      0.23269320      0.16025372
C      -1.34239621      1.09886653     -0.64373107
C       0.03645830      0.92608133     -0.77587279
H       2.52572665      0.03716676     -1.22267415
H       2.45342613     -1.35530413     -0.13949612
H       0.42279377     -1.78689884      1.24983597
H      -2.01579994     -1.47424797      1.47105990
H      -3.15367988      0.37011645      0.26529758
H      -1.83991445      1.91326402     -1.16404933
H       0.59957986      1.61796351     -1.39876769
