25
Cn1c(=O)c2c(ncn2CO)n(C)c1=O
C      -2.45969154     -1.98863848     -0.18339871
N      -1.48922083     -0.91243289     -0.14092880
C      -0.13942663     -1.24686384     -0.02182716
O       0.30009359     -2.39124967      0.05864409
C       0.70983612     -0.11099640      0.01202531
C       0.25026355      1.16854742     -0.03679259
N       1.26518554      2.07448990      0.02187926
C       2.35685865      1.34000314      0.11533599
N       2.06861158     -0.00044603      0.10402412
C       3.03578370     -1.07781288      0.12096712
O       2.77124758     -1.93813131      1.21711533
N      -1.09077966      1.45063338     -0.13335918
C      -1.54300147      2.82951968     -0.17004150
C      -2.00874793      0.39969450     -0.18152709
O      -3.22503972      0.59745727     -0.25579682
H      -3.08886671     -1.93024625      0.71078387
H      -3.09780163     -1.86478808     -1.06451394
H      -1.98914864     -2.97418499     -0.22385562
H       3.36720779      1.72333455      0.18815212
H       2.96900222     -1.62646052     -0.82330889
H       4.03832627     -0.65594674      0.23312542
H       1.95329595     -2.42824385      0.98892260
H      -2.62945924      2.89980669     -0.26778982
H      -1.08226971      3.33493273     -1.02473513
H      -1.24225884      3.32802264      0.75690002
