42
CCCCOC(=O)c1ccc(C(=O)OCCCC)cc1
C       7.77430005      0.44487621      0.36085755
C       6.68849045      1.47433168      0.08899545
C       5.28019729      0.97056644      0.40058098
C       4.83124950     -0.17933429     -0.49715704
O       3.48320747     -0.55605759     -0.16878370
C       2.50553421      0.12486512     -0.81581711
O       2.66975911      1.01656360     -1.63296790
C       1.16266521     -0.35908719     -0.39196522
C       0.03214915      0.23902175     -0.96642171
C      -1.25386156     -0.17712415     -0.60358218
C      -1.42340966     -1.19880088      0.34024625
C      -2.76635121     -1.68123306      0.76479516
O      -2.93515830     -2.56172044      1.59318010
O      -3.74332049     -1.01006443      0.10734646
C      -5.07422435     -1.40618400      0.46299244
C      -6.07168515     -0.56555373     -0.32959204
C      -5.97986689      0.92191820      0.01875268
C      -7.00377211      1.73762966     -0.75493521
C      -0.29314700     -1.79661229      0.91514892
C       0.99287381     -1.38041233      0.55219314
H       7.72182790      0.08113841      1.39187390
H       7.69236031     -0.41228473     -0.31381936
H       8.76201510      0.89208227      0.20932162
H       6.74578135      1.79744183     -0.95692750
H       6.88553410      2.35961672      0.70528765
H       5.21262928      0.66006575      1.45075427
H       4.57695351      1.80610865      0.29763900
H       5.44925904     -1.06580672     -0.32366357
H       4.92257174      0.07357231     -1.56015901
H       0.14749756      1.03459527     -1.70144418
H      -2.11119339      0.30653255     -1.06638801
H      -5.23010719     -1.26366647      1.53886983
H      -5.21435495     -2.46429838      0.21318226
H      -5.87811940     -0.69083860     -1.40194007
H      -7.08580372     -0.93028131     -0.12952556
H      -6.14606441      1.06252912      1.09310825
H      -4.97734847      1.30293254     -0.20703876
H      -6.84587940      1.64335232     -1.83405997
H      -8.02222289      1.40791226     -0.52610462
H      -6.92237472      2.79667409     -0.49087998
H      -0.40866467     -2.59162768      1.65072650
H       1.85007379     -1.86333847      1.01585073
