27
O=S(=O)(c1ccccc1O)c1ccccc1O
O       0.25667385      1.50772587     -2.15139035
S       0.04783056      0.18603109     -1.58130715
O      -0.11737811     -0.96596237     -2.45371883
C       1.42031319     -0.14814632     -0.51806996
C       1.54780347     -1.43966248      0.01184658
C       2.60820238     -1.73416737      0.86865632
C       3.53660449     -0.74530012      1.19196112
C       3.41048295      0.53717596      0.65456010
C       2.35746962      0.83809631     -0.20787790
O       2.33009522      2.11939765     -0.68086486
C      -1.38791235      0.27419375     -0.55333473
C      -1.55579908      1.40848577      0.25306077
C      -2.66742993      1.50372840      1.09002342
C      -3.60651409      0.47339708      1.11926984
C      -3.43959954     -0.65036407      0.30763829
C      -2.33496596     -0.75048685     -0.53672408
O      -2.27046755     -1.88734883     -1.29143055
H       0.83053387     -2.22027863     -0.23455370
H       2.71273973     -2.73399165      1.28416389
H       4.36413999     -0.97255044      1.86001831
H       4.14049929      1.30351454      0.90496734
H       1.67941621      2.20368583     -1.41216608
H      -0.83059137      2.21989598      0.23761347
H      -2.80354542      2.38065670      1.71906465
H      -4.47397522      0.54534682      1.77126198
H      -4.17785611     -1.44873543      0.32954640
H      -1.57677008     -1.80433718     -1.98221431
