35
O=C(/C=C/c1ccccc1)OCCc1ccccc1
O      -0.01823302      1.48355032      0.27438469
C       0.40107812      0.49133541     -0.29704227
C       1.81960177      0.09189380     -0.38882997
C       2.76626726      0.85020837      0.18435157
C       4.19971300      0.52987395      0.16184864
C       4.82431523     -0.04513217     -0.95303347
C       6.19684170     -0.30855835     -0.94169767
C       6.96025827      0.00933404      0.17943327
C       6.35394054      0.59625698      1.28761389
C       4.98200307      0.86038500      1.27634015
O      -0.33720528     -0.43983313     -0.95111525
C      -1.75370223     -0.19416513     -0.97207456
C      -2.40481663     -0.70451999      0.31241311
C      -3.89905617     -0.51599237      0.29909476
C      -4.45981112      0.70641624      0.69311134
C      -5.84253811      0.89189090      0.66263391
C      -6.67590501     -0.14005646      0.23521678
C      -6.12748366     -1.35791023     -0.16308704
C      -4.74469461     -1.54567708     -0.13363384
H       2.04012688     -0.82744913     -0.91617803
H       2.48989702      1.75307493      0.72731960
H       4.25649370     -0.28352295     -1.84875775
H       6.67027749     -0.75619424     -1.81177356
H       8.02786971     -0.19436929      0.18711963
H       6.94800353      0.85123863      2.16141616
H       4.52836973      1.32067424      2.15164190
H      -2.15343999     -0.73338441     -1.83867394
H      -1.96005555      0.86959075     -1.14576244
H      -1.97793725     -0.19985987      1.18808202
H      -2.15813282     -1.76455991      0.45547223
H      -3.82042394      1.52167202      1.02693052
H      -6.26894976      1.84239007      0.97247334
H      -7.75265082      0.00510294      0.21241384
H      -6.77755607     -2.16234273     -0.49703837
H      -4.33246496     -2.50136115     -0.44934889
