27
CCC(C)(C)c1ccccc1
C      -1.96005103      1.64402618      0.23044232
C      -1.93693214      0.16674703     -0.15133577
C      -0.73346789     -0.64813596      0.41517773
C      -0.83557967     -0.67875428      1.95923907
C      -0.88056082     -2.11551316     -0.05994223
C       0.60816388     -0.10078871     -0.10858746
C       1.64173601      0.31817095      0.74647130
C       2.84919937      0.81167102      0.24018144
C       3.05231166      0.89611953     -1.13295543
C       2.04812999      0.48568088     -2.00176592
C       0.84228460     -0.00713750     -1.49523089
H      -2.05672454      1.78069100      1.31101546
H      -2.82046021      2.13306307     -0.23857081
H      -1.05972842      2.16497933     -0.10757892
H      -1.96511249      0.09792290     -1.24586398
H      -2.87529384     -0.28638073      0.19585007
H      -0.08172552     -1.34399454      2.39724059
H      -1.81635372     -1.04849174      2.28131017
H      -0.69953894      0.31243845      2.40443683
H      -1.80150148     -2.56606032      0.32859179
H      -0.03912770     -2.72940410      0.28326562
H      -0.92043104     -2.19501128     -1.15201091
H       1.53733439      0.27260880      1.82672681
H       3.63159905      1.12985878      0.92443060
H       3.99051806      1.27945847     -1.52395074
H       2.19959903      0.54691792     -3.07615249
H       0.08171341     -0.32068199     -2.20676797
