49
CC(C)CC(NC(=S)Nc1ccccc1)C(=O)NC1CCOC1O
C       1.37430891      3.41587856      1.11426373
C       1.15538304      2.86853542     -0.29658410
C       1.04376013      4.03324895     -1.28615114
C      -0.10238885      1.98248946     -0.39929175
C      -0.12606111      0.73033428      0.49319170
N      -1.47907796      0.14576738      0.49742500
C      -2.51885614      0.44804132      1.31956780
S      -2.46336413      1.54018703      2.58625637
N      -3.68840896     -0.22903686      1.12795621
C      -4.19675164     -0.94110867      0.02187704
C      -5.31978848     -1.74714979      0.24859746
C      -5.89830802     -2.47650981     -0.79337530
C      -5.36945541     -2.39265736     -2.07808748
C      -4.27199265     -1.57041209     -2.32079089
C      -3.69319243     -0.84073312     -1.27719501
C       0.81801036     -0.36725598     -0.04439521
O       0.40864060     -1.32401831     -0.70295814
N       2.15322777     -0.18722127      0.25273698
C       3.09340813     -1.25724989     -0.03479713
C       4.53719480     -0.81857489      0.06886428
C       5.24833728     -2.14469234      0.24304899
O       4.34615779     -3.03785460      0.91334136
C       3.06118188     -2.41711682      0.97208533
O       2.89308878     -1.90864641      2.29246279
H       2.22288527      4.10842099      1.13422370
H       1.59727052      2.61534996      1.82525947
H       0.49102378      3.95543227      1.47221719
H       2.03768490      2.28682370     -0.58367375
H       0.18591524      4.67327289     -1.05299097
H       0.92375705      3.66374793     -2.31010642
H       1.94600909      4.65360561     -1.26044309
H      -0.97897722      2.60410094     -0.17288924
H      -0.22560641      1.66921418     -1.44552392
H       0.15467438      0.95112449      1.52597459
H      -1.54089571     -0.74861640      0.01742419
H      -4.32427434     -0.13402445      1.91285105
H      -5.74854189     -1.83261800      1.24392879
H      -6.76091018     -3.10891237     -0.60036733
H      -5.81775787     -2.95733002     -2.89133975
H      -3.86988517     -1.48399958     -3.32724213
H      -2.87918616     -0.16715975     -1.52492476
H       2.34310092      0.32629415      1.10700348
H       2.90887868     -1.64573158     -1.04489535
H       4.69384423     -0.19003250      0.95441904
H       4.88862873     -0.25758338     -0.80189948
H       5.49460857     -2.58965638     -0.72699315
H       6.17022829     -2.05057321      0.82401802
H       2.26757237     -3.14034773      0.76020631
H       2.81489919     -2.70504592      2.84506513
