35
Cn1ccc2cc3c(Nc4cccc(Br)c4)ncnc3cc21
C       5.72248263     -0.36071821      0.30505446
N       4.54210895      0.47430261      0.33482767
C       4.54923248      1.83252433      0.51355500
C       3.24375021      2.26841028      0.48854439
C       2.41452850      1.13385761      0.28312913
C       1.02587369      0.94255130      0.16980077
C       0.49591302     -0.36103690     -0.04020117
C      -0.87622183     -0.65630308     -0.17642152
N      -1.81231951      0.41539595     -0.16034617
C      -3.21862547      0.35141941     -0.03257215
C      -3.99525832      1.40955235     -0.53351724
C      -5.38459168      1.42545354     -0.37795693
C      -6.01902414      0.39206584      0.30570484
C      -5.25657348     -0.64310577      0.83963625
Br     -6.11032473     -2.03394956      1.79645630
C      -3.86867052     -0.65954059      0.68539669
N      -1.32245192     -1.91497529     -0.33867701
C      -0.40071707     -2.87853995     -0.38574269
N       0.92160412     -2.71174207     -0.28941438
C       1.35880642     -1.46257141     -0.11417954
C       2.73092470     -1.26962341     -0.00238096
C       3.24751012      0.02138739      0.19217534
H       5.65197864     -1.08754205      1.11826956
H       5.76450643     -0.86510808     -0.66365441
H       6.61304978      0.25872965      0.43843036
H       5.47350147      2.37984443      0.64654879
H       2.92085763      3.29452453      0.60611908
H       0.36982032      1.80290619      0.26260233
H      -1.53171882      1.09735533     -0.85743210
H      -3.52331228      2.23636171     -1.05868659
H      -5.96806235      2.24690525     -0.78553065
H      -7.09860014      0.40730358      0.42646011
H      -3.29350177     -1.46368377      1.13515062
H      -0.75922419     -3.89347907     -0.51809111
H       3.39274910     -2.12893204     -0.06358606
