32
O=C(Oc1ccc2c(c1)OCCC2=O)c1ccccc1
O      -1.27406832      0.37662258      1.66884054
C      -1.75682291      0.11257586      0.57743703
O      -1.09043300     -0.36830258     -0.53421383
C       0.27707492     -0.54133988     -0.31424337
C       0.74626779     -1.80251092      0.05475490
C       2.11671364     -1.99457677      0.22821857
C       2.99534550     -0.92379189      0.02555625
C       2.51190832      0.33663976     -0.34139850
C       1.14636434      0.52660291     -0.53657623
O       3.32245654      1.42102268     -0.55725164
C       4.55391770      1.33116611      0.16649082
C       5.31400866      0.07009534     -0.18775480
C       4.45475410     -1.11638010      0.14899516
O       4.92694399     -2.20641149      0.45466474
C      -3.20501198      0.27486036      0.26657504
C      -4.04765055      0.74348242      1.28486776
C      -5.41312213      0.91435299      1.04865541
C      -5.94543847      0.61876100     -0.20509815
C      -5.11559332      0.15256985     -1.22407453
C      -3.74836962     -0.01998892     -0.99214008
H       0.05508104     -2.62671680      0.20496086
H       2.49792154     -2.97395478      0.50915765
H       0.76489340      1.49669646     -0.83886456
H       5.15232394      2.20879652     -0.10008396
H       4.34651676      1.39546655      1.24300165
H       5.54320899      0.02895168     -1.25776236
H       6.24314201      0.01870807      0.38791709
H      -3.64344796      0.97778954      2.26839234
H      -6.06014165      1.27802720      1.84337167
H      -7.00909673      0.75210319     -0.38844838
H      -5.53401772     -0.07694136     -2.20138031
H      -3.12562881     -0.38437558     -1.80527903
