13
CC=CCC#N
C      -2.19582513      0.31921397     -0.12554963
C      -0.84220251     -0.27570463     -0.34753683
C       0.23661045      0.02017072      0.39587317
C       1.60261008     -0.57364060      0.18326545
C       2.59526069      0.47937151     -0.08066902
N       3.39003819      1.30181443     -0.28183465
H      -2.51916217      0.85395307     -1.02381984
H      -2.20689217      1.02238806      0.71317342
H      -2.92086072     -0.47324241      0.08351121
H      -0.76238595     -0.98267157     -1.17114303
H       0.14134703      0.72803273      1.21866061
H       1.59505451     -1.28890283     -0.64712030
H       1.88640769     -1.13078246      1.08318946
