32
C/C=C/C(=O)C1=C(C)C=CCC1(C)C
C       4.42949038      0.85779924     -0.59891906
C       3.22160463      0.78075286      0.27439044
C       2.03220034      0.31259409     -0.13224792
C       0.87540956      0.27332796      0.80638365
O       0.92580635      0.69098368      1.95586711
C      -0.38137374     -0.27552517      0.22742493
C      -0.49441879     -1.60472098     -0.00110976
C       0.53957044     -2.64980596      0.32740680
C      -1.72945005     -2.13380515     -0.56172453
C      -2.65311730     -1.33215177     -1.10812332
C      -2.47373135      0.15756759     -1.14776659
C      -1.52405434      0.70885988     -0.03962680
C      -2.32552158      0.89826809      1.26743195
C      -1.02413063      2.09131332     -0.50792596
H       4.23288886      0.48763161     -1.61010222
H       5.23942814      0.26112310     -0.16842994
H       4.76891193      1.89526057     -0.67510877
H       3.34196633      1.13304578      1.29827955
H       1.87265228     -0.04448161     -1.14287279
H       1.37925634     -2.26010464      0.90899981
H       0.94247781     -3.08593067     -0.59305867
H       0.09649774     -3.45508770      0.92464239
H      -1.88504215     -3.20990487     -0.55012727
H      -3.55089721     -1.75368824     -1.55045063
H      -3.45821436      0.63514268     -1.06385103
H      -2.09208240      0.41354614     -2.14532612
H      -2.72680709     -0.05097914      1.64049651
H      -1.70563953      1.32919325      2.06171853
H      -3.17308263      1.57657916      1.11467427
H      -1.86616460      2.74714418     -0.75897405
H      -0.44043447      2.60035583      0.26721695
H      -0.39399892      2.00569690     -1.40073582
