19
CC(O)(P(=O)(O)O)P(=O)(O)O
C      -0.28375237     -1.00969723      1.47249623
C       0.04990107      0.08309944      0.46409945
O       0.54411172      1.22950634      1.22147122
P       1.40862069     -0.41348664     -0.64017700
O       1.15041019     -1.33759774     -1.78067794
O       2.06683205      0.97330490     -1.12374645
O       2.60218561     -0.95280666      0.29067168
P      -1.43060164      0.64752797     -0.43109890
O      -1.26546618      1.70317304     -1.47484147
O      -2.17682182     -0.64842337     -1.00913470
O      -2.50065717      1.11107024      0.67582940
H      -0.62681226     -1.91592794      0.96503283
H      -1.06702071     -0.68107123      2.16296073
H       0.59101477     -1.26511284      2.07912397
H       1.02828313      1.78365192      0.57256930
H       2.68074702      0.86083639     -1.87470834
H       3.32073792     -1.38014279     -0.21044816
H      -2.86710609     -0.43533444     -1.66446809
H      -3.22460593      1.64743061      0.30504626
