22
Cc1nc(=O)c2cc([N+](=O)[O-])ccc2[nH]1
C       3.87386528      0.33564021      0.16091261
C       2.37724168      0.48919526      0.03173819
N       1.92281562      1.63696725     -0.35782123
C       0.56203267      1.81034350     -0.48601011
O       0.06416245      2.87025616     -0.84994840
C      -0.35551132      0.68109935     -0.17597268
C      -1.74381511      0.81832701     -0.29413686
C      -2.55697161     -0.27756884      0.01088967
N      -4.01665220     -0.15954940     -0.10499301
O      -4.69586511     -1.15713903      0.17593789
O      -4.48023574      0.92677144     -0.47548100
C      -1.99070876     -1.49252236      0.42782446
C      -0.60100391     -1.61160927      0.54029246
C       0.22378404     -0.52487555      0.23880467
N       1.61097058     -0.60573912      0.33897535
H       4.38515118      1.26431481     -0.10711904
H       4.12358466      0.07456220      1.19324639
H       4.21456339     -0.46480223     -0.50199856
H      -2.16611077      1.76802719     -0.61895311
H      -2.61571018     -2.35173650      0.66764898
H      -0.17570752     -2.55877099      0.86446188
H       2.04012068     -1.47119107      0.63736087
