20
O=C1C=CC(=O)N1c1ccccc1
O      -1.30781004     -2.46774406      0.18292113
C      -1.70607242     -1.31886442      0.08851198
C      -3.14527913     -1.03725912      0.05305075
C      -3.30027830      0.27737737     -0.05221735
C      -1.96602621      0.88595234     -0.08803560
O      -1.84588150      2.09594845     -0.18250948
N      -1.04189766     -0.12283168      0.00013514
C       0.37858700      0.04463258     -0.00004875
C       1.25096159     -1.05341397      0.09469689
C       2.64291288     -0.89116313      0.09466235
C       3.19965093      0.37721413     -0.00041457
C       2.36318812      1.48134385     -0.09531088
C       0.97166693      1.31544490     -0.09498448
H      -3.90003349     -1.80183010      0.10651375
H      -4.21215673      0.84546499     -0.10546551
H       0.88647092     -2.07326664      0.17190819
H       3.28686471     -1.76422261      0.16953845
H       4.27871777      0.50442769     -0.00055469
H       2.78643419      2.48021764     -0.17032544
H       0.37998043      2.22257179     -0.17207189
