32
CC(=O)N1CCN(c2ccc(O)cc2)CC1
C       4.82483577     -0.43951603      0.31121875
C       3.89815483      0.74917972      0.26098931
O       4.34480323      1.89124246      0.36513098
N       2.55130850      0.48654500      0.08736130
C       1.98146218     -0.85238414     -0.09396677
C       0.56564562     -0.83959226     -0.70214948
N      -0.34299313      0.01780665      0.07385708
C      -1.72036193     -0.14364141      0.01546530
C      -2.56786317      0.43649914      0.97705937
C      -3.95957133      0.27753685      0.93929445
C      -4.53137474     -0.47612575     -0.07344339
O      -5.87848296     -0.66035113     -0.15470540
C      -3.73376978     -1.06875898     -1.03768411
C      -2.34394708     -0.90392160     -0.98820453
C       0.23894845      1.21953603      0.70444799
C       1.59851959      1.59853195      0.08921661
H       4.46087652     -1.18444991      1.02337293
H       5.81404836     -0.11191065      0.64550639
H       4.92172237     -0.87802402     -0.68516173
H       2.64583901     -1.45152128     -0.72433548
H       1.95309114     -1.31713704      0.89907522
H       0.61163393     -0.47494567     -1.73568644
H       0.20816920     -1.87602271     -0.71887176
H      -2.15100427      1.01079348      1.80010945
H      -4.56594238      0.74302001      1.70914980
H      -6.29924568     -0.18814723      0.58215592
H      -4.18509206     -1.65646402     -1.83157502
H      -1.76127918     -1.37123562     -1.77621781
H       0.36754229      1.02300130      1.77573358
H      -0.42503138      2.08520545      0.59205971
H       2.01581815      2.45912146      0.62284651
H       1.46353993      1.89612995     -0.95799185
