46
COC(=O)c1ccccc1CS(=O)(=O)NC(=O)Nc1nc(OC)cc(OC)n1
C       2.69730417      3.77084493     -1.32063582
O       3.54121691      2.68337555     -0.94351253
C       3.09189570      1.46857509     -1.34905576
O       2.08680833      1.26400394     -2.00991500
C       4.00439152      0.39718264     -0.84972202
C       5.37433954      0.69033768     -0.71593243
C       6.27281417     -0.27739182     -0.26651757
C       5.81511770     -1.54941284      0.05503943
C       4.46092665     -1.85729693     -0.07722810
C       3.53491348     -0.89865424     -0.53622711
C       2.08253753     -1.30931913     -0.61923500
S       1.24427474     -0.81644828      0.89750985
O       1.38172797      0.61517064      1.08768927
O       1.58683727     -1.72868426      1.96723849
N      -0.34681445     -1.02850058      0.51581188
C      -0.97519595     -2.22527642      0.21329115
O      -0.35467335     -3.27490746      0.09785283
N      -2.31798582     -2.20458144      0.00361151
C      -3.18159672     -1.12496390      0.02560889
N      -2.70904225      0.10941004      0.25576767
C      -3.61461661      1.10357713      0.24887158
O      -3.21417778      2.40432325      0.47942898
C      -1.81679190      2.54701260      0.72302271
C      -4.95118772      0.91396303      0.02154456
C      -5.32161743     -0.38633024     -0.20049456
O      -6.66637513     -0.60387747     -0.42890417
C      -6.99555535     -1.97505458     -0.62884246
N      -4.46347606     -1.42155426     -0.20674703
H       2.64209995      3.85289460     -2.41042071
H       1.69758919      3.65021896     -0.89074836
H       3.13428633      4.69225033     -0.92583917
H       5.75610444      1.67875986     -0.96405012
H       7.32774100     -0.03517599     -0.16413673
H       6.51020436     -2.30372974      0.41666594
H       4.12707523     -2.85809666      0.19699820
H       1.99459336     -2.39751137     -0.70480305
H       1.56499871     -0.87868145     -1.47569368
H      -0.90323462     -0.17405307      0.51005208
H      -2.74780433     -3.09307808     -0.19667774
H      -1.61521883      3.60847761      0.89755547
H      -1.51448441      1.99734298      1.62085616
H      -1.22876255      2.23394044     -0.14688737
H      -5.66102171      1.72785090      0.02061667
H      -8.07474166     -2.03785912     -0.79630877
H      -6.75921260     -2.57233871      0.25879880
H      -6.49621101     -2.37673416     -1.51743328
