39
O=C(O)CC(CP1(=O)Oc2ccccc2-c2ccccc21)C(=O)O
O       5.88051633      0.46768968      0.83244847
C       4.75149186      0.56030006      0.37892034
O       4.53111496      1.27648574     -0.73766863
C       3.50596668     -0.00761016      1.00950491
C       2.33989976     -0.20677743      0.03123438
C       1.08296094     -0.71236098      0.74588979
P       0.02990393      0.62857871      1.35276770
O       0.81227266      1.54228278      2.25930207
O      -1.10708131     -0.18984997      2.16634748
C      -2.09238361     -0.85701167      1.48358008
C      -2.62054981     -1.97312965      2.13890511
C      -3.59238099     -2.74701518      1.51658091
C      -4.02986709     -2.40155178      0.24337103
C      -3.50980598     -1.27045413     -0.39922319
C      -2.53950933     -0.45044260      0.20909983
C      -2.01917111      0.77957726     -0.44634990
C      -2.68447551      1.41877394     -1.50990137
C      -2.17963578      2.58358321     -2.09914067
C      -1.00012980      3.14855270     -1.63163519
C      -0.32806254      2.54914840     -0.57356160
C      -0.82809677      1.37499240      0.01295766
C       2.72109246     -1.19338073     -1.04398398
O       3.63322598     -2.00015754     -1.01198325
O       1.90380811     -1.12195757     -2.11242689
H       5.42714816      1.59168020     -0.98521034
H       3.21789143      0.67631845      1.81355187
H       3.78176314     -0.96799014      1.46221916
H       2.12622849      0.74585147     -0.46702464
H       0.47569236     -1.33732840      0.08133682
H       1.35752120     -1.34699762      1.59692981
H      -2.26460533     -2.24135792      3.13040291
H      -4.00195424     -3.61900943      2.01957975
H      -4.78277294     -3.00826027     -0.25464296
H      -3.88328575     -1.05264837     -1.39656806
H      -3.62786920      1.03847105     -1.89297706
H      -2.72011227      3.05455938     -2.91680034
H      -0.61258792      4.05923751     -2.08091741
H       0.58581598      2.99970291     -0.18922904
H       2.26002289     -1.79049429     -2.73568555
