42
COc1ccc(N2CCN(c3ccc([N+](=O)[O-])cc3)CC2)cc1
C       7.30513163     -0.36667552     -1.68260821
O       6.63138270      0.42935308     -0.71609285
C       5.27453204      0.28906571     -0.64020566
C       4.48874492     -0.55448652     -1.41606305
C       3.09759277     -0.59637396     -1.22731210
C       2.44499192      0.19467463     -0.26834206
N       1.07304077      0.14728841     -0.09266891
C       0.27746705     -1.01429048     -0.52453864
C      -1.00644918     -1.19039429      0.32117839
N      -1.84400592      0.02290380      0.32270058
C      -3.21102198     -0.03184440      0.52720443
C      -3.82405160     -1.13823157      1.14214520
C      -5.20807734     -1.20374979      1.35376045
C      -6.01617117     -0.14313752      0.94336803
N      -7.46616474     -0.20080120      1.15849165
O      -7.92992528     -1.21696901      1.69595017
O      -8.14336183      0.76990099      0.79018609
C      -5.44673774      0.97202146      0.32824711
C      -4.06017010      1.01617876      0.12842774
C      -1.13899387      1.30309653      0.12417321
C       0.33941573      1.23486445      0.57595159
C       3.26398178      1.03713899      0.49722166
C       4.65331038      1.08437057      0.31765781
H       7.17702434     -1.43400892     -1.47397242
H       6.97541499     -0.11924352     -2.69709776
H       8.37370938     -0.14058276     -1.61572185
H       4.91570714     -1.19207052     -2.18232219
H       2.52712613     -1.25446506     -1.87702909
H       0.00613969     -0.88511174     -1.57949764
H       0.85553897     -1.94166962     -0.43215658
H      -0.73357651     -1.43455690      1.35524048
H      -1.55560560     -2.04243067     -0.09731887
H      -3.22466065     -1.97325825      1.49674583
H      -5.62691584     -2.08172817      1.84055031
H      -6.05549032      1.80908894     -0.00635746
H      -3.65557949      1.89029920     -0.37623277
H      -1.18515439      1.57102340     -0.93854617
H      -1.61686889      2.10515965      0.69954869
H       0.38413979      1.08011657      1.66104203
H       0.79240731      2.20784905      0.35054763
H       2.84103680      1.66512370      1.27582640
H       5.25114622      1.74731821      0.93791880
