21
C=CC1CC2C=CC1C2
C       3.15993044     -0.06476372      0.12786357
C       1.89935820     -0.43886690      0.38182146
C       0.69208670      0.18455864     -0.27255894
C      -0.18938162     -0.86908393     -1.02116428
C      -1.57839311     -0.68493728     -0.36954343
C      -2.08627423      0.69606432     -0.71563970
C      -1.33704079      1.57666412     -0.03425180
C      -0.31683616      0.77928254      0.75229639
C      -1.19023958     -0.43608504      1.08993354
H       3.99427137     -0.54826936      0.62688889
H       3.39030788      0.72636236     -0.57910422
H       1.73010565     -1.23894912      1.09970349
H       1.01701177      0.95914799     -0.98080334
H       0.17522764     -1.89135600     -0.86556905
H      -0.21188196     -0.67449626     -2.09951802
H      -2.29365258     -1.49188685     -0.53110152
H      -2.87566169      0.92313896     -1.41594902
H      -1.39933502      2.65320448     -0.07965110
H       0.10439471      1.30048466      1.61349711
H      -0.63839428     -1.26818529      1.53951510
H      -2.04560337     -0.19202833      1.73333485
