46
C/C=C/C1=C(C(=O)O)N2C(=O)[C@@H](NC(=O)[C@H](N)c3ccc(O)cc3)[C@@H]2SC1
C      -7.55869649     -1.19800501      0.91191648
C      -6.13028997     -1.19073028      0.46387431
C      -5.43171149     -0.06482296      0.23922517
C      -4.03143705      0.02740480     -0.20039109
C      -3.34260980      1.19830449     -0.18566791
C      -3.97299852      2.49279449      0.19090329
O      -4.95936737      3.00220879     -0.30866741
O      -3.32059128      3.06001496      1.22321317
N      -2.02885755      1.24418195     -0.52861061
C      -1.10679403      2.17793024     -0.82663390
O      -1.12760468      3.38568460     -0.85314699
C      -0.07184851      1.04814129     -1.17060286
N       1.20759163      1.15283587     -0.42912600
C       1.96982887      0.06207764     -0.06356836
O       1.59185753     -1.09085222     -0.24931657
C       3.29871604      0.44445773      0.64286099
N       3.61202882      1.87975052      0.40671636
C       4.47764654     -0.42059376      0.24289075
C       4.77349855     -0.68080872     -1.10626608
C       5.88533159     -1.45085674     -1.45428852
C       6.70875072     -1.96186592     -0.46011810
O       7.78076187     -2.71071202     -0.84535869
C       6.44318757     -1.71216391      0.88164810
C       5.33217987     -0.93934660      1.23092609
C      -1.15738479      0.09412988     -0.57799309
S      -1.91518594     -1.07373429     -1.73175562
C      -3.40774803     -1.27577740     -0.70176708
H      -7.96021592     -0.18816569      1.04467037
H      -7.64574649     -1.72617702      1.86613729
H      -8.17712065     -1.71724629      0.17355348
H      -5.68718291     -2.17500419      0.33782140
H      -5.95668951      0.87524966      0.41056107
H      -3.75634817      3.93009656      1.32710903
H       0.11001559      0.96294459     -2.24862341
H       1.62625802      2.05943185     -0.21425644
H       3.09502615      0.32463997      1.71489673
H       4.42397774      2.11115616      0.98277549
H       3.95317191      1.96734851     -0.55316519
H       4.13622144     -0.29799583     -1.90058985
H       6.10335730     -1.65741102     -2.49863899
H       8.20567173     -3.07299675     -0.05161672
H       7.08436386     -2.10639011      1.66414704
H       5.13556657     -0.74834197      2.28410125
H      -0.93437022     -0.30824076      0.41722303
H      -4.11662731     -1.81531694     -1.33843832
H      -3.15758317     -1.91722815      0.15047111
