37
Cc1ccc(N/N=C2\C(=O)C=Cc3ccccc32)c(C)c1
C       5.77693243     -1.54213102     -0.06800898
C       4.40044444     -0.94814627     -0.08445141
C       3.31548203     -1.65771747      0.43014589
C       2.04001618     -1.08665358      0.43936831
C       1.80773747      0.20036276     -0.07047330
N       0.52351889      0.78751548     -0.01144911
N      -0.54977173      0.01112875      0.28957868
C      -1.74128976      0.48077189      0.03698918
C      -2.00021430      1.84334878     -0.60795223
O      -1.09477947      2.50717290     -1.09934052
C      -3.38850371      2.34363373     -0.64111651
C      -4.40961905      1.58003965     -0.24169288
C      -4.21463219      0.21466079      0.24586886
C      -5.33018946     -0.56167066      0.58876239
C      -5.16863537     -1.86544742      1.06407090
C      -3.89240408     -2.40557571      1.20408066
C      -2.77431549     -1.64299923      0.86837536
C      -2.93320559     -0.33528080      0.38771801
C       2.91280847      0.93927122     -0.54489629
C       2.75704602      2.34652430     -1.05612745
C       4.19337023      0.35347597     -0.55462223
H       6.28484923     -1.28441411      0.86641571
H       5.73349419     -2.63269197     -0.15783825
H       6.37202877     -1.17116612     -0.90912772
H       3.44933011     -2.65855627      0.83240043
H       1.21372933     -1.65841252      0.85340717
H       0.39231890      1.58872750     -0.63900304
H      -3.53011918      3.34801527     -1.02157058
H      -5.42339095      1.96849411     -0.28521052
H      -6.33768327     -0.16241927      0.49086431
H      -6.04064543     -2.45995806      1.32724200
H      -3.76575019     -3.41960827      1.57605154
H      -1.78122520     -2.07320345      0.98365875
H       3.72452950      2.79347122     -1.30864987
H       2.29556941      2.98172497     -0.29305713
H       2.14167103      2.35387431     -1.96146242
H       5.04149778      0.92383859     -0.92894770
