67
C=CC(=O)OCC(CC)(COCC(CC)(COC(=O)C=C)COC(=O)C=C)COC(=O)C=C
C       7.18494252     -0.86767563      1.26915165
C       7.18635234     -1.15383924     -0.04011353
C       5.98987453     -1.16896886     -0.90828335
O       6.04979512     -1.43740908     -2.09853729
O       4.86918320     -0.85582313     -0.21736598
C       3.66782228     -0.85496216     -1.00101637
C       2.45201269     -0.51688109     -0.10604435
C       2.34764266     -1.48430072      1.11142840
C       2.17705891     -2.95789525      0.76917033
C       1.18823213     -0.57501304     -0.99215209
O       0.03300210     -0.28641682     -0.20609264
C      -1.16394557     -0.25950980     -0.98252769
C      -2.35124528      0.17554206     -0.09227022
C      -2.05723431      1.51257267      0.65451852
C      -1.63064927      2.68223370     -0.22611727
C      -2.57965323     -0.92773700      0.97535892
O      -3.75258143     -0.62630261      1.75442835
C      -3.64814769     -0.79780231      3.09552822
O      -2.66887195     -1.17521690      3.71864290
C      -4.94985934     -0.43312405      3.69583950
C      -5.13153737     -0.48868933      5.02277231
C      -3.61141978      0.33274692     -0.97459233
O      -3.93956229     -0.91832982     -1.60043583
C      -5.04053774     -0.86842236     -2.39185627
O      -5.72882307      0.11221667     -2.61780291
C      -5.26380235     -2.21879766     -2.94907047
C      -6.26076835     -2.44815418     -3.81321217
C       2.60756913      0.91497570      0.47511323
O       2.71876884      1.87948869     -0.58493856
C       2.80908874      3.16394791     -0.15251728
O       2.81351646      3.54732967      1.00560713
C       2.90205195      4.03730395     -1.34196031
C       2.95920771      5.36863776     -1.21188031
H       8.11091188     -0.87499769      1.83482790
H       6.27632826     -0.61930604      1.80930284
H       8.11035662     -1.39983955     -0.55165571
H       3.54098971     -1.84190763     -1.46399694
H       3.76938526     -0.11822181     -1.80847783
H       1.50469099     -1.18662069      1.74850055
H       3.24250022     -1.38331185      1.73770096
H       2.11526475     -3.54742935      1.68950107
H       1.25814071     -3.13669488      0.20667605
H       3.02379486     -3.33802466      0.19214077
H       1.25988411      0.15339632     -1.80875883
H       1.07437984     -1.56648586     -1.44489601
H      -1.03867262      0.43388909     -1.82316564
H      -1.33390396     -1.26022579     -1.39866401
H      -1.27137639      1.34919709      1.40388216
H      -2.94697759      1.82019364      1.21827918
H      -1.47747299      3.57166981      0.39445446
H      -0.68736670      2.48033298     -0.74181076
H      -2.39123681      2.92759536     -0.97225265
H      -2.75261799     -1.90018372      0.49966484
H      -1.68827866     -1.02842351      1.60561907
H      -5.74411635     -0.12260336      3.02572360
H      -4.33284711     -0.79556776      5.69727063
H      -6.08513274     -0.22034757      5.46362213
H      -4.46588290      0.66939587     -0.37372624
H      -3.42819943      1.07183314     -1.76315045
H      -4.59692614     -3.01013720     -2.63123044
H      -6.93116374     -1.65435545     -4.13213390
H      -6.42910650     -3.44019949     -4.22095211
H       3.50793207      0.97250999      1.09942339
H       1.74123786      1.17108024      1.09925696
H       2.92297236      3.56156083     -2.31240012
H       2.93753506      5.84309422     -0.23572332
H       3.02749176      6.01341064     -2.08162380
