71
CCCCC(=O)OC1(C(=O)CO)C(C)CC2C3CCC4=CC(=O)C=CC4(C)C3(F)C(O)CC21C
C       5.11581015      4.36261732      0.41415928
C       5.59340336      3.32255192     -0.58762524
C       5.25303396      1.88586732     -0.18785409
C       3.75056165      1.61188217     -0.13679368
C       3.45452536      0.15060917      0.10293398
O       4.28331105     -0.72497661      0.30082211
O       2.10734767     -0.04595264      0.08558489
C       1.57455875     -1.39308577      0.19767113
C       2.37685055     -2.37051278     -0.70536002
O       2.53204968     -2.13494904     -1.91158625
C       3.00241647     -3.61524852     -0.08622930
O       3.60363012     -4.44338688     -1.07326349
C       1.36555260     -1.79020031      1.70554515
C       2.40468635     -1.28451462      2.70129362
C      -0.05355955     -1.28973797      2.10239788
C      -0.57463810     -0.57081034      0.86519573
C      -2.06781637     -0.22275188      0.76495222
C      -3.09213550     -1.30864243      1.08701518
C      -4.48865183     -0.69312852      1.27793867
C      -4.66870524      0.61365825      0.53303744
C      -5.39848078      1.60587829      1.07389300
C      -5.57544275      2.90794865      0.39627405
O      -6.25916983      3.79356351      0.89445620
C      -4.89814263      3.09455056     -0.90003387
C      -4.16427164      2.11242292     -1.43946270
C      -3.93775148      0.73929041     -0.81418143
C      -4.61120181     -0.27733418     -1.76957065
C      -2.37785633      0.48772333     -0.59640189
F      -1.76692758      1.72495755     -0.44953430
C      -1.66827313     -0.19392126     -1.81199589
O      -1.80321389      0.60428706     -2.99322629
C      -0.17078669     -0.46794779     -1.57546954
C       0.07118611     -1.32288261     -0.31498973
C      -0.49351669     -2.75095795     -0.53403448
H       5.50127861      4.14966223      1.41659612
H       4.02371800      4.40033411      0.46390619
H       5.46808061      5.35651710      0.11939012
H       6.68193356      3.40706569     -0.68699944
H       5.16812928      3.54471696     -1.57343498
H       5.70484471      1.65449638      0.78479148
H       5.72130958      1.20847799     -0.91333823
H       3.28739062      2.18408821      0.67363194
H       3.29041965      1.89881483     -1.08913861
H       2.23043338     -4.21506376      0.39824228
H       3.76782747     -3.32674922      0.63651222
H       3.96029477     -3.83731069     -1.75358313
H       1.34180983     -2.88016314      1.80774314
H       3.39619814     -1.68594352      2.47736540
H       2.45861275     -0.19153128      2.71667873
H       2.14820203     -1.61149336      3.71541730
H      -0.67576852     -2.14942409      2.37031321
H      -0.03997256     -0.61744869      2.96717366
H      -0.09752500      0.42356243      0.90471208
H      -2.19974784      0.54077457      1.54967938
H      -3.14544533     -2.05206969      0.28899759
H      -2.82920495     -1.85314956      1.99967335
H      -4.65007903     -0.53199252      2.35176568
H      -5.24842187     -1.41407638      0.95338183
H      -5.89945121      1.51318619      2.03070880
H      -5.02041297      4.05863781     -1.37785410
H      -3.66843675      2.30308975     -2.39006665
H      -4.42473684     -1.31503400     -1.47652496
H      -5.70084102     -0.14207140     -1.78946030
H      -4.26955943     -0.16344685     -2.80448764
H      -2.15923933     -1.14422434     -2.03688099
H      -1.22080710      0.23427299     -3.67981270
H       0.34806219      0.49706956     -1.51427827
H       0.25019376     -0.96246005     -2.45940150
H      -1.55174686     -2.75703781     -0.79085641
H       0.01358305     -3.24868215     -1.36819409
H      -0.37930738     -3.39226060      0.34454059
