21
CC=Cc1ccc(O)c(O)c1
C      -3.85507021     -0.15473714      0.23366408
C      -2.37332656     -0.33600028      0.30773407
C      -1.49076131      0.60151862     -0.07183963
C      -0.03188376      0.44155324      0.00686540
C       0.75061871      1.55403388      0.35983483
C       2.14354330      1.45846292      0.42033828
C       2.75114855      0.25136732      0.11540204
O       4.11176961      0.15569878      0.17199221
C       1.99056404     -0.85515129     -0.25122191
O       2.65699629     -2.01255463     -0.54963329
C       0.60276818     -0.76893337     -0.31290261
H      -4.29196373     -0.24767302      1.23261377
H      -4.13375558      0.82321888     -0.17134318
H      -4.29264389     -0.92656768     -0.40681487
H      -2.03314202     -1.28563976      0.71338720
H      -1.84109673      1.56146087     -0.44567333
H       0.27946921      2.50465579      0.60052419
H       2.74521633      2.31725613      0.70104766
H       4.30158401     -0.76934328     -0.08211666
H       1.99774825     -2.68577101     -0.79116622
H       0.01221733     -1.62685498     -0.61723284
