8
CCF
C      -0.76548824      0.00526473     -0.01946099
C       0.74118683     -0.08572060      0.02651652
F       1.25882299      1.16643524     -0.07983708
H      -1.13432395      0.63397673      0.79678881
H      -1.09089291      0.46708757     -0.95669828
H      -1.22051619     -0.98550652      0.06356594
H       1.12756866     -0.68516381     -0.80217008
H       1.08364280     -0.51637334      0.97129517
