16
CCC(N)C(=O)O
C       1.71587951      0.27672124      0.27930951
C       0.90779196     -0.13989691     -0.94463561
C      -0.54793270     -0.52909248     -0.65491152
N      -0.62122495     -1.69712877      0.25317054
C      -1.35605629      0.64211577     -0.08204917
O      -1.95415867      0.65575430      0.98384152
O      -1.39487412      1.71396872     -0.89736064
H       1.81903110     -0.54567427      0.99337281
H       2.72393704      0.57678959     -0.02534671
H       1.25596210      1.12665661      0.79242597
H       0.92650241      0.68654325     -1.66581500
H       1.41739644     -0.98227940     -1.42938965
H      -1.03433194     -0.82102670     -1.59318644
H      -1.60841419     -1.92006691      0.39982144
H      -0.29969776     -1.40505327      1.17868353
H      -1.94980996      2.36166924     -0.41402504
