40
CC(C)Cn1ccc(NS(=O)(=O)c2ccc(N)cc2)nc1=O
C       2.16632396     -0.31217501      2.32765806
C       3.05544301     -1.21216461      1.46738601
C       4.34180648     -1.54629597      2.22552436
C       3.40199247     -0.56141971      0.11349935
N       2.23957503     -0.38533099     -0.75934731
C       1.65085364      0.85474150     -0.86755776
C       0.58453343      1.04620472     -1.64276961
C       0.11755736     -0.16159882     -2.32794781
N      -1.01538226     -0.07200499     -3.14262532
S      -2.28632709      0.99774206     -3.09220910
O      -3.33321769      0.44611512     -3.92272859
O      -1.76677690      2.33054962     -3.30820940
C      -2.83909430      0.87769017     -1.40911528
C      -3.20987750     -0.36795810     -0.89806365
C      -3.60983354     -0.46973541      0.43657154
C      -3.69063483      0.66628622      1.24870456
N      -3.97034790      0.53617872      2.61291827
C      -3.27303619      1.89735249      0.73213889
C      -2.86810042      2.01450041     -0.59994214
N       0.65890463     -1.32303013     -2.27345269
C       1.76214741     -1.49323887     -1.47330147
O       2.30501415     -2.59160508     -1.38462294
H       2.63298405      0.66426819      2.49594376
H       1.19239285     -0.14930354      1.85585511
H       1.98081586     -0.77044663      3.30513639
H       2.51512321     -2.15063305      1.29236975
H       4.97141290     -2.22671635      1.64245867
H       4.11619970     -2.03661724      3.17847808
H       4.92397365     -0.64317206      2.43833579
H       3.89557397      0.40700052      0.26627294
H       4.12380737     -1.19404196     -0.41909187
H       2.09117767      1.67247035     -0.30474158
H       0.12633510      2.01347521     -1.76878108
H      -1.25450651     -0.93049344     -3.63545983
H      -3.17935309     -1.25988408     -1.51919700
H      -3.86253097     -1.44784302      0.83928437
H      -4.31830479      1.38560955      3.04723144
H      -4.54251976     -0.27113746      2.84225619
H      -3.26310342      2.77989483      1.36734423
H      -2.57100075      2.98676684     -0.98620331
