9
O=C(O)C(Br)=C(Br)Br
O       0.90934614     -0.44287381      1.66813131
C       0.87173639     -0.09087485      0.50332942
O       1.92433028     -0.25730856     -0.31831834
C      -0.26541601      0.54903690     -0.18576735
Br      0.07405848      2.26958183     -0.85335858
C      -1.43529832     -0.10965203     -0.28447564
Br     -1.72816376     -1.86074995      0.34980738
Br     -2.96149445      0.61649380     -1.12383948
H       2.61090124     -0.67365332      0.24449127
