15
O=c1nc[nH]c2nccnc12
O       0.39068951      2.98375127     -0.04472794
C       0.76440775      1.81539021     -0.04244011
N       2.11303665      1.48671117     -0.07775316
C       2.43468675      0.23864343     -0.07307086
N       1.59106743     -0.82024954     -0.03681339
C       0.22485341     -0.58664880      0.00007583
N      -0.61768440     -1.64569558      0.03630164
C      -1.93989193     -1.34206070      0.07112789
C      -2.41121494     -0.03755240      0.07013814
N      -1.58427790      1.02869434      0.03428450
C      -0.25713485      0.72185199     -0.00064702
H       3.49760713     -0.05466079     -0.10051898
H       1.88690871     -1.78499866     -0.03457385
H      -2.62019935     -2.18684622      0.10026438
H      -3.47285398      0.18367027      0.09835294
