25
O=c1[nH]c2ccccc2n1CCCCl
O       1.06090658      1.56197610      2.31302074
C       0.21427412      1.09828865      1.56808531
N      -1.00956012      1.69750670      1.23687584
C      -1.68206831      0.88204875      0.33396027
C      -2.90420868      1.07569780     -0.26686375
C      -3.33551448      0.08096966     -1.14986322
C      -2.54392323     -1.06036479     -1.40288207
C      -1.30300277     -1.23327752     -0.77813247
C      -0.89434356     -0.24386158      0.08910748
N       0.27218810     -0.11763467      0.85650722
C       1.37543250     -1.04313423      0.88130310
C       2.34733558     -0.85957614     -0.28387126
C       3.07456398      0.47781477     -0.22998782
Cl      4.27230544      0.57332403     -1.54652715
H      -1.31364950      2.58583451      1.59956888
H      -3.50758799      1.95358885     -0.07135350
H      -4.29542581      0.18622120     -1.65182563
H      -2.90650516     -1.81712404     -2.09610337
H      -0.70058600     -2.11093262     -0.97712522
H       0.97402560     -2.06293251      0.87650745
H       1.91286757     -0.91623465      1.82859612
H       3.08101447     -1.67459011     -0.24750881
H       1.81289998     -0.95324276     -1.23702874
H       2.38693146      1.31768337     -0.35935871
H       3.61163022      0.60195125      0.71489932
