34
Nc1ccc(-c2ccc(N)cc2S(=O)(=O)O)c(S(=O)(=O)O)c1
N       4.88332298      0.21833811      1.13673501
C       3.55355319      0.20665800      0.70189735
C       3.19095349      0.87423270     -0.46745501
C       1.84995110      0.96544081     -0.85524762
C       0.82449356      0.42754767     -0.05924915
C      -0.56724646      0.56818312     -0.51402225
C      -1.21862453      1.78686589     -0.24372827
C      -2.54141819      2.01549685     -0.63797305
C      -3.27426649      1.02318552     -1.28263482
N      -4.54905279      1.29782367     -1.78154165
C      -2.62863225     -0.16564551     -1.61351401
C      -1.29736013     -0.40538539     -1.21871559
S      -0.65199778     -2.01009943     -1.65935561
O      -1.04056123     -2.26676726     -3.02991227
O       0.72774590     -2.12233360     -1.24260641
O      -1.49507168     -3.00554062     -0.70390654
C       1.19863228     -0.17577089      1.15678274
S      -0.03782973     -0.83749506      2.23734436
O      -0.76526804      0.27077202      2.81424785
O      -0.71119690     -1.91681927      1.53779366
O       0.75113441     -1.50091873      3.47727534
C       2.54621923     -0.27304082      1.53790101
H       5.55769016      0.29197969      0.37974594
H       5.11669169     -0.53904279      1.77222783
H       3.95264356      1.32292114     -1.10064214
H       1.61086705      1.46733729     -1.79210992
H      -0.69118810      2.58388553      0.28067000
H      -2.99281351      2.98292377     -0.43118774
H      -5.05863807      2.00704887     -1.26357265
H      -5.11540650      0.47520785     -1.96720294
H      -3.16419409     -0.92415675     -2.18345388
H      -1.21328562     -2.84439317      0.23449912
H       0.42889508     -1.06750289      4.29694288
H       2.82125842     -0.73093633      2.48396842
