26
O=C1c2ccccc2C(=O)c2c1ccc(O)c2O
O       1.02769175      2.70547113     -0.18505287
C       0.68158960      1.53045089     -0.16231357
C       1.51816498      0.49349304     -0.79877645
C       2.71354405      0.85744178     -1.43142047
C       3.50912316     -0.11792062     -2.03505522
C       3.11475766     -1.45545969     -2.00891002
C       1.92386123     -1.82086406     -1.37907004
C       1.12478124     -0.84324243     -0.77308302
C      -0.13224320     -1.23509799     -0.10919701
O      -0.49247651     -2.40865971     -0.07810241
C      -0.97226319     -0.20502909      0.52819640
C      -0.57754308      1.13446879      0.50216017
C      -1.37508787      2.11882919      1.10828175
C      -2.56763536      1.76371206      1.74060591
C      -2.95237319      0.43082810      1.76189324
O      -4.11967275      0.08856047      2.38163338
C      -2.16878601     -0.55446997      1.16365743
O      -2.64108382     -1.84167893      1.24214140
H       3.02860985      1.89947680     -1.45628667
H       4.43740840      0.16670905     -2.52604289
H       3.73564367     -2.21481629     -2.47972754
H       1.62412069     -2.86730171     -1.36367640
H      -1.07026212      3.16422581      1.08981885
H      -3.19023377      2.51942620      2.21186528
H      -4.18620375     -0.88256114      2.27427708
H      -1.99343166     -2.42599168      0.78218369
