12
O=C(O)/C=C/CBr
O       2.10079652      0.92314011     -0.96446592
C       1.78055024      0.15320615     -0.08055846
O       2.67977701     -0.43142061      0.72569078
C       0.42487515     -0.28678155      0.27654004
C      -0.63968136      0.19198076     -0.38622326
C      -2.04503106     -0.20935922     -0.09825444
Br     -3.00308499      1.35384194      0.54349514
H       3.53781812     -0.07507653      0.41399945
H       0.33432349     -0.99795475      1.08867088
H      -0.49200723      0.90495878     -1.19710788
H      -2.55265159     -0.55423385     -1.00237033
H      -2.12568431     -0.97230124      0.68058400
