57
C[C@@H]1C[C@H]2[C@@H]3CCC4=CC(=O)C=C[C@]4(C)[C@@]3(F)[C@@H](O)C[C@]2(C)[C@@]1(O)C(=O)CO
C      -3.69701565     -1.61979826     -2.02950066
C      -3.00782777     -0.48219782     -1.27998747
C      -1.61779748     -0.14959053     -1.88829321
C      -0.62561239     -0.36906389     -0.74618318
C       0.75216813      0.30754365     -0.82118942
C       1.46491520     -0.06185559     -2.13550420
C       2.87671476      0.51000374     -2.20821146
C       3.67800081      0.10194142     -0.99859467
C       4.82413532     -0.58692941     -1.14387284
C       5.60586882     -1.05675033      0.01757625
O       6.66099027     -1.66132300     -0.12618283
C       5.06512938     -0.76610782      1.35826050
C       3.92467487     -0.07961526      1.50888546
C       3.06981241      0.47205497      0.36777840
C       3.12424464      2.01152860      0.50376891
C       1.60366440     -0.12629756      0.42039247
F       1.74545502     -1.50292341      0.31157523
C       0.83677782      0.08162419      1.76569591
O       0.81047171      1.44353475      2.17977257
C      -0.60666331     -0.47315255      1.73764197
C      -1.42561167      0.01033656      0.52052408
C      -1.71079668      1.53186717      0.63099553
C      -2.75230377     -0.76539343      0.23179187
O      -2.53237098     -2.17683354      0.40314505
C      -3.88910231     -0.41589134      1.20945202
O      -3.89986594     -0.91344415      2.34514288
C      -5.01124187      0.51393968      0.77167390
O      -5.84237002      0.87531938      1.86685041
H      -4.65138539     -1.87487958     -1.55809119
H      -3.90218832     -1.32412089     -3.06403774
H      -3.07685129     -2.52161933     -2.06284440
H      -3.62935980      0.41006354     -1.41163074
H      -1.37749263     -0.77845050     -2.75229311
H      -1.59866073      0.89273304     -2.22795955
H      -0.43249904     -1.45386215     -0.72733816
H       0.62148048      1.39428316     -0.81676625
H       1.50883398     -1.15379997     -2.24242227
H       0.89235976      0.31454717     -2.99139043
H       3.35074642      0.16517292     -3.13533002
H       2.83674829      1.60339385     -2.27419461
H       5.23226735     -0.85283759     -2.11227248
H       5.64437656     -1.12718777      2.19917236
H       3.59113842      0.12607460      2.52360096
H       2.94998762      2.34645063      1.53177960
H       2.39352084      2.51812894     -0.13336998
H       4.11361447      2.39755680      0.22397662
H       1.36378446     -0.47258254      2.55128001
H       0.40114754      1.47573717      3.06357414
H      -0.53272363     -1.56730609      1.73072232
H      -1.12956634     -0.19810095      2.66176673
H      -2.21349585      1.76223802      1.57714209
H      -2.35103691      1.90137952     -0.17513461
H      -0.80837567      2.14419881      0.59236614
H      -2.60375014     -2.36228832      1.36182659
H      -5.62779859      0.00547951      0.02637229
H      -4.60242391      1.43606503      0.35662824
H      -5.78684166      0.14100674      2.51146398
