27
CC(=O)OC1CCCCC1C
C       3.15895519     -1.01997352      1.08107661
C       2.40805044     -0.49025814     -0.10181727
O       2.93078343     -0.13052096     -1.14659714
O       1.07486665     -0.47181809      0.16900107
C       0.21578687      0.01773029     -0.88195481
C       0.15156001      1.54960324     -0.81954738
C      -0.51111502      2.04540246      0.46551507
C      -1.89346955      1.43041013      0.65797114
C      -1.85018412     -0.09464436      0.59947134
C      -1.18988217     -0.59194740     -0.69631818
C      -1.14607994     -2.12136652     -0.71147959
H       4.22863225     -1.03712775      0.85350021
H       2.83335812     -2.03995693      1.30027666
H       2.99653706     -0.36967062      1.94428124
H       0.60551036     -0.29800065     -1.85835940
H       1.15919671      1.97632599     -0.87718066
H      -0.40973634      1.92466841     -1.68409065
H      -0.59633439      3.13762896      0.43596777
H       0.12195846      1.80030131      1.32699428
H      -2.56959207      1.80466663     -0.12067163
H      -2.30853386      1.75047661      1.62034286
H      -2.87235735     -0.48553737      0.67055129
H      -1.30585813     -0.47544629      1.47291585
H      -1.81271000     -0.26829901     -1.54145451
H      -0.58080018     -2.52055380      0.13716810
H      -2.15871070     -2.53586409     -0.66291272
H      -0.67983174     -2.48622853     -1.63264956
