47
O=C(C1CCCCC1)N1CC(=O)N2CCc3ccccc3C2C1
O      -1.36526714      0.91567671      1.11154682
C      -1.52333576      0.04867560      0.24927317
C      -2.78565104     -0.82991545      0.22481093
C      -3.57998657     -0.65897566     -1.07950296
C      -4.34382041      0.66248173     -1.13802957
C      -5.26379605      0.82938333      0.06456415
C      -4.49381252      0.71248884      1.37351600
C      -3.68841795     -0.58479000      1.44910146
N      -0.56442620     -0.14403729     -0.74191149
C      -0.30527908     -1.43513833     -1.37504235
C       0.96777032     -2.13698555     -0.85599868
O       1.11886311     -3.34606446     -1.04225287
N       1.97912399     -1.32561370     -0.34483889
C       3.23469674     -1.93014415      0.07515381
C       4.40791574     -1.06042036     -0.36110959
C       4.23230407      0.36478843      0.09891089
C       5.36226575      1.18259905      0.24987876
C       5.22955303      2.49734677      0.69045416
C       3.96898848      3.00478921      0.98647473
C       2.83738431      2.20424044      0.82326540
C       2.94588979      0.88454176      0.34889416
C       1.69319377      0.03006442      0.17934996
C       0.62236864      0.71007538     -0.69945521
H      -2.44563451     -1.86862973      0.31058710
H      -2.93120712     -0.72539090     -1.95882416
H      -4.29851309     -1.48470215     -1.16302227
H      -3.63577329      1.49892048     -1.18075289
H      -4.93657554      0.70090438     -2.05911979
H      -6.05029643      0.06535117      0.03307526
H      -5.76335731      1.80347768      0.01584915
H      -5.19464333      0.75514262      2.21528784
H      -3.82726517      1.57578025      1.47998508
H      -3.09459225     -0.58978033      2.37109946
H      -4.39341842     -1.42266166      1.53155178
H      -0.16284616     -1.25048735     -2.44587434
H      -1.13906970     -2.12664229     -1.25433055
H       3.34977795     -2.93308025     -0.34866577
H       3.20188038     -2.03711943      1.16658929
H       5.33400442     -1.48137517      0.04711288
H       4.48783641     -1.05965499     -1.45513451
H       6.35494540      0.79334039      0.03383711
H       6.11056246      3.12173731      0.81356691
H       3.86469944      4.02455377      1.34855787
H       1.86678895      2.62379891      1.08316818
H       1.28443831     -0.13729511      1.18594589
H       0.98269830      0.83889284     -1.72827753
H       0.34903532      1.70318351     -0.32926478
