19
Cc1cccc2[nH]c(=S)[nH]c12
C       2.02935317     -1.47535137      0.02585125
C       1.14759197     -0.27075848      0.05635219
C       1.67061592      1.02689256      0.18726843
C       0.82957872      2.16389896      0.21547501
C      -0.55914207      2.03943503      0.11380258
C      -1.05395763      0.76423952     -0.01357327
N      -2.37433895      0.33505498     -0.13326211
C      -2.37478855     -1.05965426     -0.23657594
S      -3.70039984     -2.02574731     -0.39637365
N      -1.04339213     -1.48444798     -0.17939403
C      -0.22632796     -0.36097217     -0.04179902
H       3.08559101     -1.20119025      0.11648399
H       1.90434056     -2.01364221     -0.91916008
H       1.78608697     -2.14517362      0.85686940
H       2.74647876      1.17418037      0.26980199
H       1.27440534      3.15179806      0.31824716
H      -1.20579459      2.90748867      0.13503350
H      -3.19680820      0.91806542     -0.14484505
H      -0.73909252     -2.44411591     -0.23020234
