29
CCCCOC(=O)C(C)OC(C)=O
C      -3.26106064      1.77475126     -1.44627227
C      -2.64850822      0.41645261     -1.14257751
C      -2.51579047      0.18786654      0.36460236
C      -1.93975354     -1.18869745      0.69258441
O      -0.64223207     -1.36418889      0.10443592
C       0.40379361     -0.84454531      0.81099677
O       0.31329818     -0.29510519      1.90203734
C       1.71110765     -1.05825186      0.04294598
C       2.12105182     -2.52146551      0.13863013
O       2.78498698     -0.28107795      0.59298252
C       2.68009209      1.05617123      0.35885635
C       3.78633175      1.78948014      1.05200245
O       1.81952092      1.58567659     -0.32988789
H      -2.64099570      2.58294838     -1.04539586
H      -4.26169349      1.86029847     -1.01070260
H      -3.34814392      1.91789115     -2.52786536
H      -1.66530350      0.35503678     -1.62289702
H      -3.27532123     -0.36731231     -1.58344617
H      -1.86976555      0.96814081      0.78377553
H      -3.49772976      0.28488963      0.84218351
H      -2.58552276     -1.97211588      0.28096551
H      -1.90057266     -1.35051037      1.77635186
H       1.56530883     -0.78649079     -1.00998073
H       1.36267603     -3.18203704     -0.29307256
H       3.06958350     -2.68936161     -0.38257722
H       2.27474930     -2.81651330      1.18299584
H       3.74256169      1.59631496      2.12685410
H       4.75056920      1.47749594      0.64334480
H       3.66676198      2.86425898      0.88818992
