36
CCN1c2ncccc2C(=O)Nc2c(C(F)(F)F)cc(C)nc21
C      -0.75745121      3.21559878     -0.35249446
C      -1.33820152      2.08683405      0.50027035
N      -0.99499796      0.76077113     -0.05568318
C      -2.00278886     -0.20486552      0.16342452
N      -2.94401121      0.03456675      1.12280661
C      -3.92546338     -0.86980054      1.33313593
C      -4.04765182     -2.03959088      0.61768141
C      -3.10321323     -2.28691943     -0.36700786
C      -2.06189260     -1.36953966     -0.59505922
C      -1.13374535     -1.67842373     -1.69259202
O      -1.54084291     -2.34041189     -2.64916216
N       0.20085937     -1.37997624     -1.63341044
C       0.93704782     -0.61695123     -0.70545770
C       2.32857310     -0.83470130     -0.61746453
C       3.03241010     -1.91514714     -1.39252672
F       2.99056626     -3.11729119     -0.75663819
F       2.50089406     -2.12758551     -2.62991284
F       4.35278375     -1.65132403     -1.60352978
C       3.08854763     -0.07002181      0.27826045
C       2.46244527      0.90219047      1.03043278
C       3.24145574      1.74209833      1.99639286
N       1.14153985      1.14236270      0.92388156
C       0.37051681      0.40890280      0.07547850
H      -1.10601333      4.18375453      0.02161645
H       0.33567156      3.23241805     -0.34210449
H      -1.07959250      3.11826231     -1.39489546
H      -1.03637882      2.18665476      1.55104015
H      -2.42383442      2.25350582      0.47225550
H      -4.63308416     -0.61149964      2.11584655
H      -4.85646681     -2.73457600      0.81131734
H      -3.17670476     -3.19258556     -0.96615277
H       0.70550237     -1.86134821     -2.37437782
H       4.15817816     -0.23698873      0.38517337
H       2.58687258      2.45367322      2.51003556
H       3.71536463      1.10832804      2.75236191
H       4.01310576      2.30962650      1.46705785
