45
CCN(CCO)C(=O)c1cc2ccncn2c1-c1cccc(C(F)(F)F)c1
C       3.45243633      0.79264747     -1.52398712
C       2.19363256     -0.04679021     -1.37252010
N       2.12268116     -0.67638899     -0.05268386
C       2.79194453     -1.97070965      0.11333935
C       1.81293331     -3.14846883     -0.00595515
O       0.87921691     -3.21755945      1.06948418
C       1.45476334     -0.14577984      1.05040720
O       1.45765190     -0.71248876      2.14265723
C       0.70216790      1.08515502      0.86522725
C       1.11523899      2.40220742      1.20851718
C       0.07758451      3.24700387      0.89692542
C      -0.14308857      4.64001960      0.98904729
C      -1.34092701      5.12104634      0.61593892
N      -2.39487473      4.36408838      0.14865902
C      -2.19866972      3.07871718      0.06078885
N      -0.97263164      2.49567107      0.40839468
C      -0.59583754      1.16220518      0.35466090
C      -1.44833807      0.07887313     -0.13918734
C      -1.89609583      0.07154348     -1.46565316
C      -2.66924879     -0.98656912     -1.94422821
C      -2.98964848     -2.05240086     -1.10389916
C      -2.54070555     -2.07239702      0.22542877
C      -2.88857763     -3.23654781      1.12149165
F      -2.51841528     -4.43679598      0.59544359
F      -4.23384600     -3.32811315      1.33066677
F      -2.32946983     -3.17166934      2.36055582
C      -1.77539181     -0.99509318      0.69899777
H       3.48846550      1.58981335     -0.77477350
H       3.48460265      1.25334436     -2.51605751
H       4.35261007      0.18162991     -1.40258060
H       1.32279052      0.58792852     -1.54825509
H       2.16624971     -0.83459231     -2.13387096
H       3.58168038     -2.06096246     -0.64016186
H       3.27011830     -1.99070362      1.09959988
H       2.37233591     -4.08897159     -0.01004682
H       1.24345714     -3.08694197     -0.93876503
H       1.09071834     -2.50695062      1.71116042
H       2.06586907      2.68714648      1.64163462
H       0.63651083      5.29861848      1.35642962
H      -1.53285830      6.18986306      0.68165861
H      -3.01391243      2.43088427     -0.29522801
H      -1.63371129      0.88019400     -2.14442925
H      -3.01380415     -0.98618864     -2.97575754
H      -3.58700111     -2.87814114     -1.48891634
H      -1.41860611     -1.00737601      1.72984163
