23
CCC(=O)Oc1ccc([N+](=O)[O-])cc1
C      -4.24345740     -0.27742859      0.90485858
C      -3.23155225     -0.03959209     -0.20212319
C      -1.80982666     -0.08277647      0.31022976
O      -1.47983944     -0.28296472      1.47097537
O      -0.95443450      0.14395456     -0.76597599
C       0.39190355      0.12498600     -0.40088719
C       1.01435306      1.31944660     -0.03738448
C       2.37049796      1.30989499      0.29314299
C       3.08627502      0.10322125      0.24109171
N       4.51372560      0.09061930      0.58707763
O       5.03671950      1.16466530      0.91718687
O       5.11308228     -0.99234212      0.52355776
C       2.45544645     -1.09021095     -0.14477210
C       1.09911262     -1.07533599     -0.47432535
H      -4.15513978      0.48264869      1.68824890
H      -5.26153037     -0.24053459      0.50526887
H      -4.09356757     -1.25707066      1.37075046
H      -3.40869103      0.94373300     -0.65029798
H      -3.34657761     -0.81122376     -0.97057873
H       0.44989975      2.24705882     -0.00305815
H       2.85126796      2.24063699      0.58727587
H       3.00240802     -2.02964857     -0.19186829
H       0.59992482     -1.99173699     -0.77644532
