23
C=COC1CCCCC1
C       3.32365172      0.18004902      0.24067821
C       2.79788510     -0.58502222     -0.72210597
O       1.49695411     -0.73653150     -1.10108471
C       0.47336111      0.00764461     -0.43048529
C      -0.70360595      0.13188766     -1.40670266
C      -1.90620089      0.81314649     -0.76238670
C      -2.33292202      0.10149788      0.51813626
C      -1.16985702     -0.04612039      1.49492367
C       0.03030675     -0.72449572      0.84172663
H       4.39663816      0.17659648      0.40597401
H       2.73241264      0.81639762      0.88626550
H       3.42169390     -1.21562844     -1.34794959
H       0.81586451      1.02403205     -0.19817596
H      -0.38734131      0.69252826     -2.29487710
H      -0.98994706     -0.86346230     -1.77142508
H      -1.65590251      1.85651957     -0.53446152
H      -2.74276328      0.83239783     -1.46984305
H      -2.72636447     -0.89165354      0.26848290
H      -3.14796896      0.65702261      0.99545139
H      -0.87332326      0.94402018      1.86231684
H      -1.49268874     -0.62682633      2.36632312
H       0.85646424     -0.77736415      1.55957093
H      -0.21634680     -1.76663568      0.59964819
