19
Nc1nc(N)c2nc(N)[nH]c2n1
N      -2.83492830      1.81718423     -1.13721612
C      -1.79785311      1.01787121     -0.69504563
N      -2.13670021     -0.21006168     -0.25869125
C      -1.17254881     -1.03584659      0.21222514
N      -1.54406389     -2.30244253      0.65135322
C       0.15212187     -0.57958968      0.21591115
N       1.34867021     -1.15712358      0.58882117
C       2.25108278     -0.23391426      0.36021502
N       3.57133329     -0.32694245      0.56623034
N       1.69616093      0.90971085     -0.14976046
C       0.35205418      0.70469435     -0.25084062
N      -0.56972101      1.56119089     -0.70845373
H      -3.69986040      1.50213834     -0.71923049
H      -2.59201701      2.79058420     -1.02219822
H      -0.77547832     -2.96433661      0.64683579
H      -2.41730740     -2.60006397      0.23600510
H       4.12043673      0.49827790      0.78021052
H       3.86162582     -1.13291819      1.11555900
H       2.18699266      1.74158759     -0.43192993
