28
O=C1Nc2ccccc2C(=O)N2CCCC12
O      -1.19578492     -2.48790627     -1.35788768
C      -0.61140006     -1.58466835     -0.75740512
N       0.73972031     -1.44807270     -0.93391346
C       1.63360341     -0.56844492     -0.29467546
C       2.96339991     -1.02391479     -0.23033087
C       3.95799100     -0.27609044      0.40279593
C       3.64504699      0.95392610      0.96459372
C       2.34181544      1.44034850      0.87269727
C       1.32529793      0.69404353      0.24240893
C       0.03200341      1.40913268      0.05714681
O       0.03022146      2.63784800      0.00328022
N      -1.12225943      0.68099387     -0.06657994
C      -2.40132779      1.31859117     -0.31517569
C      -3.35687730      0.15840036     -0.53336210
C      -2.79650002     -0.91285750      0.39668661
C      -1.28104695     -0.71335998      0.29990447
H       1.12649048     -2.20018283     -1.49247092
H       3.24008893     -1.98737870     -0.65463757
H       4.97604420     -0.65501997      0.45330168
H       4.41496154      1.54836325      1.45045593
H       2.12117042      2.42936366      1.27384494
H      -2.33945679      1.99318442     -1.17420157
H      -2.67175324      1.89847410      0.57461062
H      -4.39484140      0.41870299     -0.30939489
H      -3.30342084     -0.18634366     -1.57295438
H      -3.13980171     -1.91690165      0.13268009
H      -3.12754561     -0.70480134      1.42208295
H      -0.80583939     -0.91542952      1.26711400
