45
COc1ccc2c3c1OC1C(O)CCC4C(C2)N(C)CCC341
C       5.29559134     -0.33605862     -0.51763418
O       4.13376778      0.23751271      0.06370809
C       2.92983551     -0.26098632     -0.33735237
C       2.72276691     -1.23255166     -1.33092663
C       1.41994885     -1.64111529     -1.70483352
C       0.30156658     -1.11046897     -1.06504800
C       0.54118771     -0.19620330     -0.05877659
C       1.80352049      0.25928666      0.27147021
O       1.74821865      1.28017927      1.19759904
C       0.33737056      1.71602147      1.14855550
C       0.23148614      2.88005244      0.12964737
O       0.56690726      4.11052113      0.78382532
C      -1.15987956      3.03481940     -0.48066944
C      -1.65800871      1.73056766     -1.09577369
C      -1.78098766      0.66033996     -0.00682248
C      -2.20803200     -0.74433626     -0.52648734
C      -1.12405074     -1.39639928     -1.46007595
N      -2.58134243     -1.53545665      0.67448670
C      -3.23815278     -2.79889048      0.35283007
C      -1.47612772     -1.73846642      1.62049004
C      -0.79055095     -0.42008751      2.01401988
C      -0.48721156      0.46804905      0.78825082
H       5.33194192     -0.14526239     -1.59524764
H       6.16858828      0.14447206     -0.06550505
H       5.35798534     -1.40831170     -0.30392919
H       3.55765004     -1.67946436     -1.86208105
H       1.30044400     -2.36589700     -2.50707405
H       0.08354033      2.08196345      2.15113606
H       0.96754451      2.74572268     -0.67273624
H       0.77263450      4.75934142      0.08929674
H      -1.13605904      3.82006879     -1.24627783
H      -1.86529850      3.38921061      0.28215525
H      -2.63878986      1.89693431     -1.55673385
H      -0.98141404      1.42193949     -1.90010480
H      -2.56106020      1.02558488      0.67977710
H      -3.12168361     -0.61620940     -1.12247906
H      -1.26795583     -0.98602286     -2.46845379
H      -1.27287362     -2.47752079     -1.54316173
H      -2.55804478     -3.53045461     -0.09475780
H      -3.66083581     -3.24636133      1.25953314
H      -4.07668335     -2.63862927     -0.33360224
H      -0.73543710     -2.43815531      1.21396999
H      -1.86150091     -2.20023178      2.53831218
H      -1.45034612      0.13184241      2.69713406
H       0.11983017     -0.65088829      2.58220559
