13
Oc1cc(Cl)ccc1Cl
O       2.42035291     -0.59197736      0.21777797
C       1.09358533     -0.28049711      0.09753847
C       0.20127123     -1.33562632     -0.06687416
C      -1.15960378     -1.06262827     -0.19327716
Cl     -2.27545866     -2.35626569     -0.39717239
C      -1.62756891      0.25301568     -0.15602919
C      -0.72657664      1.30885812      0.00935212
C       0.63588589      1.03970520      0.13617789
Cl      1.74444700      2.34335232      0.33996062
H       2.90803225      0.24646710      0.32493139
H       0.56930851     -2.35706127     -0.09529225
H      -2.69018313      0.46112322     -0.25506389
H      -1.09349200      2.33153438      0.03797058
