17
O=C(O)c1ccc([N+](=O)[O-])cc1
O       3.18120071      1.24732909     -0.73027478
C       2.59297120      0.25891711     -0.33401668
O       3.25396689     -0.85345242      0.02897959
C       1.12201637      0.12456463     -0.19293252
C       0.52405203     -1.05503263      0.27345334
C      -0.86750531     -1.14055785      0.39180701
C      -1.66136540     -0.03948892      0.04124740
N      -3.12261003     -0.12645875      0.16449737
O      -3.78784192      0.86861148     -0.15560175
O      -3.60284682     -1.18994853      0.58130083
C      -1.07226781      1.14337295     -0.42576978
C       0.31944035      1.22084762     -0.54120525
H       4.19741691     -0.62613407     -0.11282895
H       1.13327584     -1.91423075      0.54764860
H      -1.31158880     -2.06537962      0.75591059
H      -1.67538264      2.00652458     -0.70178568
H       0.77706843      2.14051608     -0.90428326
