19
ON=C1CCCCC1
O       3.01176915      0.47129308     -0.81354413
N       2.26973594     -0.60338010     -0.31883831
C       1.09432407     -0.23367976      0.09301561
C       0.17703708     -1.28741329      0.67862123
C      -1.17091172     -1.23978363     -0.02984661
C      -1.76838982      0.16737498     -0.00917356
C      -0.80933106      1.18961869     -0.62043084
C       0.54917942      1.18182305      0.07423672
H       3.84768155      0.04374972     -1.07771764
H       0.62659434     -2.28041058      0.57448363
H       0.05825620     -1.07903524      1.74776361
H      -1.04941456     -1.56328509     -1.07123499
H      -1.86368498     -1.94173691      0.44743484
H      -2.71294963      0.17293562     -0.56471082
H      -2.00106674      0.45327512      1.02389168
H      -0.67572827      0.96440094     -1.68599145
H      -1.24986837      2.19080858     -0.55531209
H       1.22074546      1.88005098     -0.43034325
H       0.44602193      1.51339385      1.11381251
