31
NC(=O)NN=C[C@H](O)[C@@H](O)[C@H](O)[C@H](O)CO
N      -4.40077016      0.06849942     -0.66089244
C      -3.46184377     -0.71638085     -0.07582922
O      -3.72152095     -1.47406460      0.85003675
N      -2.20652491     -0.59485809     -0.61474340
N      -1.91952694      0.29976804     -1.60305936
C      -0.69919414      0.33366017     -2.05466119
C       0.49929893     -0.51672855     -1.63186361
O       0.19433243     -1.64295016     -0.82360221
C       1.56346692      0.36611528     -0.96157393
O       2.02455835      1.34720118     -1.91058101
C       1.12486178      1.10305531      0.31657425
O       2.21230780      1.99229973      0.67684095
C       0.78405589      0.23625531      1.53663213
O       0.55000546      1.14072184      2.64017816
C       1.89550124     -0.72717295      1.96593323
O       1.48626731     -1.35860355      3.18405400
H      -5.27607719      0.17102207     -0.17092740
H      -4.02455285      0.85597533     -1.17234859
H      -1.47390310     -1.17075274     -0.20553222
H      -0.49095293      1.07727113     -2.84482561
H       0.92550883     -0.89514137     -2.57043817
H      -0.19763155     -2.31096779     -1.42128433
H       2.44124708     -0.24912515     -0.73141597
H       2.53430123      1.98963197     -1.36916505
H       0.28600655      1.77404515      0.09701016
H       1.94373991      2.34903918      1.55203425
H      -0.14984480     -0.31137988      1.38780974
H       0.46776993      0.55030459      3.41937208
H       2.82718224     -0.19223404      2.17458767
H       2.07527236     -1.50264540      1.21721047
H       2.18665904     -1.99186060      3.42250282
