58
CCN(CCO)c1ccc(N=Nc2sc3cc(OC)ccc3[n+]2C)cc1.COS(=O)(=O)[O-]
C      -6.75938883      1.78995439     -1.49681411
C      -5.41020177      1.08836344     -1.49926208
N      -5.09548253      0.50801202     -0.17406225
C      -5.94307289     -0.64599600      0.23807197
C      -6.94233913     -0.18544368      1.31071371
O      -6.24089636      0.41887018      2.39735381
C      -3.70746378      0.27037201     -0.07039970
C      -2.91530451      1.23601651      0.56255656
C      -1.53546728      1.05798538      0.69692920
C      -0.91329086     -0.08367172      0.17959327
N       0.46995179     -0.30580556      0.33248103
N       1.12640575      0.58745352     -0.24624515
C       2.46609634      0.49157512     -0.07615365
S       3.37636218      1.73562578      0.66788168
C       4.83778192      0.83703011      0.52849333
C       6.12771118      1.18117439      0.95862864
C       7.17513956      0.27866430      0.74062737
O       8.38594617      0.71276598      1.20021603
C       9.50736562     -0.14650229      1.02387192
C       6.93041043     -0.93658567      0.10656981
C       5.63803208     -1.27716859     -0.32657603
C       4.58052488     -0.37127406     -0.11264900
N       3.24627172     -0.50429107     -0.46301390
C       2.72702177     -1.65920082     -1.17978314
C      -1.69890259     -1.04807401     -0.45822394
C      -3.08072997     -0.86843747     -0.59085907
C       1.22849824      0.34579634     -0.06049272
O       0.11642717      0.20271958      0.79418485
S      -1.26922186     -0.34329734      0.12688309
O      -0.93022930     -1.69411546     -0.31222479
O      -2.22311977     -0.28172475      1.22908143
O      -1.52884147      0.59940725     -0.95769052
H      -6.82092004      2.52464089     -0.68736124
H      -7.58035742      1.07722728     -1.37602860
H      -6.91438854      2.31204322     -2.44647242
H      -4.65514791      1.83718381     -1.77400569
H      -5.39504298      0.31179493     -2.27445764
H      -6.47338599     -1.07967199     -0.61725198
H      -5.33606527     -1.44163680      0.68804762
H      -7.64848699      0.55077549      0.91780113
H      -7.51184442     -1.03610478      1.69671486
H      -5.55558202      0.96601153      1.96264054
H      -3.38246199      2.13077049      0.96899498
H      -0.95472497      1.81522730      1.21724122
H       6.32006484      2.12962566      1.45712055
H       9.36869533     -1.08933531      1.56295787
H      10.38287122      0.35532846      1.44667211
H       9.70350338     -0.32346479     -0.03853901
H       7.73140331     -1.65169550     -0.06852189
H       5.49336157     -2.23838919     -0.81221288
H       2.47442284     -2.44391347     -0.46058222
H       1.84116155     -1.39847945     -1.76676767
H       3.47046506     -2.03821220     -1.88693705
H      -1.24470836     -1.95126863     -0.85452220
H      -3.66531310     -1.62776668     -1.10447668
H       2.09135513      0.64224170      0.54228555
H       1.04720662      1.12730967     -0.80353838
H       1.46792523     -0.59833699     -0.55848850
