37
CCCCCCCOC(=O)c1ccc(O)c(Cl)c1
C       5.20504235     -2.32000931      0.56097920
C       4.52383415     -1.02179990      0.96360154
C       3.35443802     -0.69200766      0.03630482
C       2.67175677      0.61438082      0.44482285
C       1.50105735      0.94400618     -0.48322136
C       0.81741601      2.25122015     -0.07211591
C      -0.33106569      2.62166461     -1.00866582
O      -1.33185837      1.59212642     -1.03229792
C      -2.26491309      1.65278125     -0.05110705
O      -2.33225637      2.49735049      0.82692376
C      -3.22565531      0.52304345     -0.17717315
C      -4.28180199      0.44812967      0.74500273
C      -5.21048335     -0.59255651      0.67415275
C      -5.08309782     -1.55828878     -0.31728185
O      -6.01622708     -2.55692769     -0.34552762
C      -4.03545555     -1.49349361     -1.23884947
Cl     -3.88068682     -2.69486864     -2.46638536
C      -3.10491106     -0.45647752     -1.17357471
H       6.03799621     -2.53652698      1.23715757
H       5.60193842     -2.25543445     -0.45717495
H       4.50486447     -3.16036257      0.60450232
H       4.16721974     -1.10825618      1.99658557
H       5.25825560     -0.20828609      0.94079024
H       3.71577430     -0.61060903     -0.99610694
H       2.62494598     -1.51078389      0.05957751
H       2.31023916      0.53269170      1.47712326
H       3.40122713      1.43308627      0.42123462
H       0.77710644      0.12071715     -0.46066166
H       1.86297541      1.02865205     -1.51507092
H       1.54961032      3.06696333     -0.06765378
H       0.43860869      2.14465433      0.95112747
H       0.04056636      2.73001169     -2.03349982
H      -0.77018350      3.58661354     -0.72865676
H      -4.38517929      1.20216589      1.52423278
H      -6.02735305     -0.64824924      1.38901151
H      -5.78986369     -3.14648568     -1.08924755
H      -2.29388082     -0.41883527     -1.89592825
