43
CCCCCCCCCCCCC1CO1
C      -5.49434553      1.20998225     -1.38543742
C      -5.79806620     -0.17241920     -0.82972424
C      -5.39843301     -0.34380373      0.63777816
C      -3.91452800     -0.13100451      0.95257825
C      -2.99000848     -1.09903378      0.21148766
C      -1.53373067     -0.91948453      0.64960356
C      -0.60812911     -1.88184858     -0.09805697
C       0.84497336     -1.82555913      0.38194563
C       1.53117474     -0.48945227      0.08922365
C       3.00957875     -0.52831953      0.48311731
C       3.69714618      0.80686471      0.19541750
C       5.17455681      0.77050870      0.58818425
C       5.84070376      2.08229398      0.31763352
C       7.30296131      2.15095354     -0.03410831
O       6.27831356      2.26339492     -1.03361701
H      -5.89404654      1.30275639     -2.40039807
H      -4.41714203      1.39376068     -1.43636066
H      -5.95110817      1.99060521     -0.76899287
H      -6.87666087     -0.35245513     -0.91507914
H      -5.30987999     -0.93198816     -1.44993612
H      -5.68905612     -1.35122276      0.96091984
H      -5.98423639      0.35521233      1.24783954
H      -3.77632384     -0.26109970      2.03343629
H      -3.62727196      0.90289171      0.72913480
H      -3.30748204     -2.13074465      0.40481542
H      -3.06060075     -0.93295421     -0.86930818
H      -1.22987787      0.11642136      0.46235406
H      -1.45074900     -1.09396489      1.72907312
H      -0.97288386     -2.90752745      0.03862861
H      -0.64817070     -1.67380201     -1.17421466
H       0.88529587     -2.03511156      1.45779628
H       1.40013485     -2.62968222     -0.11698743
H       1.44207901     -0.25624567     -0.97862278
H       1.03539565      0.31669179      0.64129088
H       3.51643474     -1.32851232     -0.06982384
H       3.09898093     -0.76531747      1.55027868
H       3.60603760      1.04818817     -0.87095022
H       3.19001785      1.61015443      0.74435627
H       5.26784077      0.54559710      1.65708703
H       5.68040311     -0.03778271      0.04577016
H       5.38856974      2.92132473      0.82947199
H       7.89104204      1.24214638     -0.02129040
H       7.85109050      3.04958777      0.21926697
