44
CC(C)OC(=O)[C@@H](C)N(C(=O)c1ccccc1)c1ccc(F)c(Cl)c1
C       4.10740067      0.85836632     -1.37743993
C       3.27206350      1.34315720     -0.19882697
C       2.62876238      2.68942314     -0.50810292
O       2.20179190      0.41301244      0.04258192
C       2.48412013     -0.64117458      0.86221459
O       3.60101239     -0.89679649      1.29958336
C       1.25745540     -1.54554510      1.07158777
C       1.22744317     -2.12547811      2.48793483
N      -0.02399296     -0.90312749      0.67501746
C      -0.44370035      0.21445946      1.41971976
O       0.09001304      0.56806552      2.46991234
C      -1.50487793      1.10278416      0.87788816
C      -2.49397361      1.57681614      1.74716547
C      -3.49381760      2.42245777      1.26607935
C      -3.49510785      2.80874826     -0.07494965
C      -2.49146715      2.36241721     -0.93588052
C      -1.48899142      1.51659310     -0.45993514
C      -0.85612999     -1.60139848     -0.25590055
C      -0.30342334     -2.15590526     -1.42170237
C      -1.10800272     -2.83608096     -2.34004177
C      -2.46945090     -2.97109847     -2.09620891
F      -3.22286476     -3.62560716     -2.99155868
C      -3.03384159     -2.43612103     -0.94280313
Cl     -4.71766545     -2.61008787     -0.62820930
C      -2.23127333     -1.75613416     -0.02305788
H       4.56704649     -0.11056263     -1.15714557
H       3.48333264      0.71366016     -2.26632612
H       4.90288126      1.57005914     -1.61856890
H       3.89746858      1.45345918      0.69533757
H       3.38415819      3.45595063     -0.70558894
H       1.96366593      2.61817619     -1.37603075
H       2.00997290      3.01732940      0.33440059
H       1.43743152     -2.39671520      0.40448387
H       2.08219793     -2.79397104      2.64205732
H       0.31309669     -2.70356941      2.65721948
H       1.29566392     -1.35390763      3.25999842
H      -2.48485325      1.28869803      2.79601669
H      -4.26756119      2.78622746      1.93778466
H      -4.27399210      3.47048029     -0.44694992
H      -2.48678759      2.68130622     -1.97526948
H      -0.69580674      1.19542759     -1.12982876
H       0.75104625     -2.03012032     -1.65735631
H      -0.68248315     -3.25331695     -3.24795947
H      -2.68795994     -1.38035669      0.88865834
