34
CCOP(=O)(Sc1ccccc1)Sc1ccccc1
C       1.84888645      3.79601004     -1.25442395
C       0.95823452      2.60199375     -1.52807102
O       0.73894587      1.91355132     -0.30902711
P      -0.34580755      0.70281815     -0.32443205
O      -0.26109003     -0.07457899     -1.61404391
S       0.06110970     -0.54191915      1.32065414
C       1.76344907     -0.86867482      0.92854229
C       2.77768126     -0.23736310      1.65513807
C       4.11852430     -0.49103215      1.35879894
C       4.45129566     -1.38210590      0.33998452
C       3.44462556     -2.02270808     -0.38037057
C       2.10371081     -1.77026543     -0.08398852
S      -2.25677832      1.56929916     -0.13802248
C      -3.20348514      0.06852469     -0.03672791
C      -3.80474351     -0.28783006      1.17481133
C      -4.55846906     -1.45951279      1.27012183
C      -4.72327568     -2.27559456      0.15261134
C      -4.13964845     -1.91831990     -1.06139175
C      -3.38646913     -0.74637561     -1.15755176
H       1.38001475      4.46807246     -0.52807146
H       2.04825405      4.35340864     -2.17386849
H       2.80223480      3.47484668     -0.82174415
H       1.44488166      1.92798455     -2.23985063
H       0.00299529      2.93314413     -1.94683185
H       2.53472406      0.45812757      2.45496371
H       4.90260056      0.00551759      1.92460729
H       5.49497706     -1.58008352      0.10927935
H       3.70146240     -2.72018682     -1.17361587
H       1.33045643     -2.27905708     -0.65628008
H      -3.69048284      0.33926901      2.05601805
H      -5.01746637     -1.73415245      2.21643613
H      -5.30920907     -3.18824879      0.22664663
H      -4.27015129     -2.55119350     -1.93559926
H      -2.94198783     -0.48336504     -2.11539322
