72
NCCNCCN(CCN)CCN.NCCNCCNCCNCCN
N       5.60753117     -0.19583015     -0.65370842
C       4.62800072     -0.94585850      0.13295273
C       3.18382555     -0.62002227     -0.29475769
N       2.22241516     -1.38674702      0.50954564
C       0.83334385     -1.16654493      0.07284927
C       0.24770068      0.19531537      0.51800276
N      -1.14067884      0.43554590      0.05676423
C      -2.09401328     -0.51397906      0.67193291
C      -2.64234256     -1.48777870     -0.38924142
N      -3.60822332     -2.42655523      0.18528027
C      -1.52057069      1.83699306      0.32620642
C      -2.78219954      2.28086261     -0.45023869
N      -3.11849803      3.68720750     -0.21250351
N       3.24889519      1.08485440     -1.76903986
C       3.97635076     -0.18213899     -1.95116368
C       3.55436893     -1.21651520     -0.88850161
N       2.10471678     -1.43871658     -0.95976623
C       1.51207615     -1.78663507      0.33526987
C       1.43393275     -0.62438378      1.35802965
N       1.06232243      0.68883426      0.80846694
C      -0.32852927      0.76604520      0.33894753
C      -1.36479491      0.79866226      1.48227369
N      -2.74339126      1.03072029      1.02418836
C      -3.31733854     -0.15233484      0.36028191
C      -4.80106242      0.08755131      0.00765884
N      -4.99684618      1.36866731     -0.68074559
H       5.47522287      0.80210321     -0.49345602
H       6.54303508     -0.41332347     -0.31205892
H       4.82239028     -2.01647869      0.00239325
H       4.76660317     -0.71112461      1.19463840
H       3.01528460      0.45466477     -0.16688531
H       3.06045660     -0.85947982     -1.35804684
H       2.43312043     -2.37920327      0.39351064
H       0.75070474     -1.28310166     -1.01497081
H       0.23906537     -1.97225047      0.51762342
H       0.88456307      0.98222172      0.09730121
H       0.30892328      0.28750895      1.61072737
H      -2.94160246      0.00884532      1.13360062
H      -1.63460995     -1.07618318      1.49557872
H      -1.82412201     -2.06168199     -0.83617257
H      -3.12998699     -0.92799620     -1.19577530
H      -3.94234420     -3.04614510     -0.55234187
H      -4.42663107     -1.91185072      0.50888657
H      -0.70525062      2.50038997      0.00748531
H      -1.65613820      2.00120235      1.40358153
H      -2.62376331      2.13805542     -1.52531263
H      -3.65011303      1.67560258     -0.17074775
H      -3.24890989      3.84196012      0.78613769
H      -2.33218864      4.27365621     -0.48957367
H       3.61338491      1.55437564     -0.93840218
H       3.47253312      1.70242723     -2.54992356
H       5.05428829      0.00048426     -1.88951038
H       3.76106550     -0.57193713     -2.95238118
H       3.86739214     -0.84347080      0.09302876
H       4.07606925     -2.16301880     -1.06503881
H       1.67755602     -0.57534208     -1.30696748
H       0.49179034     -2.13591866      0.13724614
H       2.04110073     -2.63756322      0.78066605
H       2.42360666     -0.50219127      1.81431286
H       0.77124977     -0.90729264      2.18313637
H       1.67717333      0.88622261      0.01289425
H      -0.54186072     -0.04377649     -0.36582995
H      -0.42450170      1.69915401     -0.23040000
H      -1.32393727     -0.11666652      2.08328210
H      -1.10316766      1.62444887      2.15553258
H      -3.31881690      1.25256119      1.83863105
H      -3.24661100     -1.03416048      1.00737485
H      -2.77203819     -0.36175496     -0.56658105
H      -5.39775516      0.09790060      0.92666262
H      -5.17577912     -0.72891917     -0.61806580
H      -4.52487065      1.32170180     -1.58399348
H      -4.43857209      2.05812544     -0.16449248
