34
c1ccc2c(c1)ccc1[nH]c3ccc4ccccc4c3c12
C      -3.63777825     -2.32301556      0.99554311
C      -2.34684539     -2.34169812      1.50776583
C      -1.41886552     -1.38256237      1.09569105
C      -1.75148357     -0.39723416      0.14030461
C      -3.09917573     -0.33766669     -0.30853705
C      -4.01481159     -1.31967330      0.10368474
C      -3.52224423      0.71401950     -1.12321242
C      -2.66253059      1.75575814     -1.46424554
C      -1.33261256      1.66866504     -1.04474209
N      -0.32557252      2.58592700     -1.19064182
C       0.85735399      2.10618975     -0.69332338
C       2.09546167      2.74831763     -0.60957952
C       3.17881385      2.01374316     -0.13273932
C       3.05926791      0.65462194      0.16260619
C       4.19157469     -0.08431002      0.54275674
C       4.11425099     -1.46147498      0.74696004
C       2.90884856     -2.12212480      0.54752183
C       1.76921932     -1.40022067      0.18559095
C       1.80097057      0.00415394      0.04068582
C       0.63638621      0.78440188     -0.29254997
C      -0.80843997      0.58218472     -0.33666647
H      -4.36193243     -3.06790212      1.31412782
H      -2.06128224     -3.09157482      2.24074893
H      -0.44581250     -1.38024106      1.57566821
H      -5.04307650     -1.29712205     -0.25091371
H      -4.55638651      0.76646379     -1.45828388
H      -3.02282632      2.60368449     -2.03821732
H      -0.44022573      3.49659912     -1.60994280
H       2.21836824      3.78590638     -0.90375979
H       4.14386178      2.51010072     -0.05036302
H       5.15518680      0.40668698      0.66088431
H       5.00254856     -2.02033334      1.02865827
H       2.85365690     -3.20198192      0.65701427
H       0.86613212     -1.95828821     -0.03849463
