17
CC(C)(C)C(=O)O
C      -0.50298094     -0.35900451      1.40634309
C      -0.10521931      0.04971778     -0.01752818
C      -0.43793001     -1.07271199     -1.00855426
C      -0.87828376      1.31700497     -0.41289106
C       1.39006164      0.33663814     -0.06204668
O       1.92592506      1.39182068     -0.35946449
O       2.14890186     -0.72626021      0.27252770
H      -0.22422741      0.41475062      2.13099540
H      -0.00464843     -1.28541711      1.71366273
H      -1.58356009     -0.52249128      1.48492581
H       0.06139823     -2.01004388     -0.73818201
H      -0.11234553     -0.81276772     -2.02243062
H      -1.51556930     -1.26845326     -1.03910582
H      -1.96039370      1.14593854     -0.39148214
H      -0.61130057      1.64605676     -1.42393709
H      -0.65690159      2.14637754      0.26894486
H       3.06707386     -0.39115507      0.19822275
