23
COC(=O)COc1nc(F)c(Cl)c(N)c1Cl
C       4.08473725     -0.73865908     -1.01023702
O       3.41734077     -0.33157702      0.18482949
C       2.25540240      0.35231320     -0.03559725
O       1.81007947      0.63797318     -1.14040758
C       1.62395121      0.73108563      1.30174465
O       0.35282859      1.36528303      1.20750802
C      -0.65620029      0.53780919      0.75259469
N      -0.43264619     -0.79516500      0.74551877
C      -1.45041019     -1.56976867      0.30935963
F      -1.23096820     -2.89451758      0.31328282
C      -2.67990415     -1.08208848     -0.12229016
Cl     -3.91119740     -2.17609646     -0.64633402
C      -2.89095827      0.30577057     -0.13978992
N      -4.16839762      0.84124219     -0.43529866
C      -1.85985513      1.12711475      0.35266087
Cl     -2.07822630      2.84494267      0.42509275
H       4.98526328     -1.28925975     -0.72452535
H       3.44540202     -1.40308617     -1.60000313
H       4.38450779      0.13481347     -1.59763775
H       2.29590068      1.45966310      1.76949805
H       1.57989544     -0.14096717      1.96551319
H      -4.14798046      1.82279788     -0.70792274
H      -4.72856468      0.26037652     -1.05636969
