29
O=C1CCC(N2C(=O)c3ccccc3C2=O)C(=O)N1
O       5.30246949      0.12814592     -1.11573875
C       4.14550335     -0.00785112     -0.72918683
C       3.69165169      0.45298130      0.63695772
C       2.21209562      0.80789860      0.63704151
C       1.40741303     -0.39637172      0.15561487
N      -0.03227399     -0.18868515      0.14661332
C      -0.92127958     -1.14944805      0.54936109
O      -0.69751068     -2.22654860      1.06798761
C      -2.25661752     -0.63995086      0.24678090
C      -3.50064911     -1.19590166      0.47115192
C      -4.61362173     -0.45713735      0.05688420
C      -4.45750818      0.79957838     -0.56501360
C      -3.18573445      1.33924777     -0.78312253
C      -2.10345925      0.59205111     -0.36167428
C      -0.67043957      0.86485695     -0.44996655
O      -0.19437866      1.84897821     -0.98228651
C       1.86785336     -0.81372746     -1.24503116
O       1.13029346     -1.32507382     -2.08554599
N       3.20980100     -0.64539608     -1.50558653
H       3.90520805     -0.34503767      1.35647414
H       4.27713235      1.33501779      0.91805179
H       1.89585597      1.10021138      1.64483834
H       2.06006083      1.67512146     -0.01535172
H       1.61905030     -1.25219999      0.81043038
H      -3.60559921     -2.16630132      0.94537521
H      -5.61432031     -0.85731942      0.21160790
H      -5.33976228      1.35301869     -0.88253517
H      -3.05088375      2.30155478     -1.26617874
H       3.51964977     -0.93171208     -2.42453955
