49
CC(C)=C[C@@H]1[C@@H](C(=O)OCN2C(=O)C3=C(CCCC3)C2=O)C1(C)C
C      -4.54303020     -2.33452512     -0.20278602
C      -3.43288851     -1.32543973     -0.31968396
C      -2.52854100     -1.24482596      0.87891599
C      -3.28779312     -0.57397778     -1.42882170
C      -2.26328420      0.44673663     -1.69367715
C      -2.32099218      1.76369609     -0.94582080
C      -1.10034494      2.42655833     -0.43259266
O      -1.01636598      3.64221208     -0.34356686
O      -0.14680166      1.53623559     -0.06716390
C       1.02442682      2.16186949      0.44792850
N       1.96471587      1.12436103      0.76765252
C       2.00040049      0.46163492      1.95139613
O       1.31933524      0.63005384      2.94543234
C       3.05302688     -0.54906946      1.82731905
C       3.57511259     -0.45267832      0.60242296
C       4.65524721     -1.31307083      0.06638069
C       4.88279993     -2.53130880      0.97958388
C       4.82601168     -2.16571374      2.47221943
C       3.49045684     -1.50946662      2.86679615
C       2.87052736      0.61757846     -0.10665078
O       3.09395782      0.94775804     -1.25627115
C      -2.61784627      1.72665235     -2.43793920
C      -1.59216445      2.25354116     -3.41428371
C      -4.03923761      2.02168106     -2.85405838
H      -5.18136584     -2.09708569      0.65460977
H      -5.17915695     -2.35787651     -1.09380284
H      -4.13009199     -3.33869280     -0.06213672
H      -1.68722329     -0.56365811      0.73408403
H      -2.10988919     -2.23179315      1.10254924
H      -3.09098409     -0.90138585      1.75325313
H      -3.98928452     -0.74203435     -2.24597682
H      -1.28343261      0.01937772     -1.89305804
H      -3.16892949      1.91728178     -0.28433169
H       0.78114636      2.71841970      1.36004065
H       1.46318378      2.82299605     -0.30799955
H       5.57949844     -0.72715545      0.00045732
H       4.41200145     -1.65898662     -0.94416818
H       5.85076094     -2.98837077      0.74421437
H       4.11579083     -3.28851729      0.77072702
H       5.64940490     -1.47610265      2.69982826
H       4.98690296     -3.06231966      3.08180884
H       2.72285155     -2.28328718      2.98466005
H       3.60515323     -1.00965432      3.83476863
H      -0.56955722      1.97656701     -3.13697191
H      -1.78236706      1.85153102     -4.41493052
H      -1.64384490      3.34605534     -3.46741546
H      -4.28005750      1.49494317     -3.78315396
H      -4.77014045      1.72363366     -2.09520203
H      -4.16709795      3.09562226     -3.02658669
