19
CC1CCC(C)O1
C       2.45661093     -0.53126058     -0.03194734
C       1.08722307     -0.05481370     -0.47617436
C       0.64253995      1.22919269      0.20426490
C      -0.85940926      1.09859154      0.14145023
C      -1.04621799     -0.38530917      0.41080770
C      -2.31834137     -0.95287417     -0.18847062
O       0.09766307     -1.04827992     -0.15569014
H       2.71537435     -1.46860574     -0.53584598
H       2.47038140     -0.74075374      1.04324023
H       3.22721705      0.21214645     -0.25623336
H       1.07535158      0.07105356     -1.56544121
H       0.96728665      1.25423836      1.25159884
H       1.02164609      2.12631282     -0.29297942
H      -1.38095717      1.73037974      0.86576337
H      -1.21133289      1.36525405     -0.86256034
H      -1.02805234     -0.57870453      1.49004530
H      -3.20433559     -0.45774597      0.21976196
H      -2.32287817     -0.84251687     -1.27838196
H      -2.38976936     -2.02630482      0.01679221
