61
CC12CCC(=O)C=C1CCC1C2CCC2(C)C(OC(=O)c3ccccc3)CCC12
C      -3.75234723     -0.71778113     -1.49495682
C      -3.39086203      0.34966706     -0.42914749
C      -3.68484198      1.72208510     -1.10485037
C      -3.83084750      2.87280325     -0.12384646
C      -4.92408767      2.55529828      0.86353008
O      -5.66991409      3.41570119      1.32478101
C      -5.01082998      1.16303868      1.36264308
C      -4.27064696      0.18080009      0.81689122
C      -4.14174814     -1.14467001      1.52441478
C      -2.69623128     -1.30402449      1.99731692
C      -1.67562218     -1.12284079      0.85513556
C      -1.90250651      0.20485736      0.06207037
C      -0.85541250      0.31915560     -1.06273365
C       0.57351390      0.23669943     -0.52373690
C       0.84909086     -1.05189077      0.28449720
C       0.94762646     -2.25226305     -0.67158673
C       2.12813053     -0.93786023      1.15137437
O       3.18582692     -0.23767906      0.48606101
C       4.13413326     -0.99552943     -0.11597341
O       4.18665065     -2.21497868     -0.11864322
C       5.12757837     -0.12867453     -0.80953477
C       6.16864393     -0.74850081     -1.51588250
C       7.12363061      0.02135205     -2.18407472
C       7.04389739      1.41345845     -2.15150691
C       6.01180268      2.03867667     -1.45195561
C       5.05417015      1.27182209     -0.78270785
C       1.69092605     -0.13472357      2.38080364
C       0.18031977     -0.33042654      2.50699182
C      -0.22726117     -1.28040946      1.36793494
H      -4.83042963     -0.72115293     -1.69736784
H      -3.48391157     -1.73456585     -1.20037683
H      -3.24722965     -0.51236183     -2.44550734
H      -4.63067543      1.65034564     -1.66191111
H      -2.92716530      1.97221274     -1.85389900
H      -4.10936635      3.78029560     -0.66993282
H      -2.90237557      3.06960755      0.42062885
H      -5.61561986      1.02571280      2.25210301
H      -4.80984803     -1.20143026      2.39329085
H      -4.42955964     -1.96931764      0.86235365
H      -2.57237393     -2.29569083      2.44996900
H      -2.50531427     -0.57027784      2.79100004
H      -1.83979880     -1.95580641      0.15932783
H      -1.71350990      1.03668545      0.75478623
H      -1.00858398     -0.46240197     -1.81336526
H      -0.95265284      1.27556332     -1.58411952
H       1.27412045      0.31238309     -1.36516054
H       0.75404003      1.12444954      0.09514525
H       1.19760212     -3.17102323     -0.12904620
H       1.72228013     -2.09346136     -1.42935743
H       0.00698206     -2.43620699     -1.19939862
H       2.45761936     -1.92717508      1.49870917
H       6.23910623     -1.83484029     -1.54780842
H       7.92844805     -0.46548391     -2.73000361
H       7.78762989      2.01233373     -2.67271037
H       5.95253500      3.12494084     -1.42766192
H       4.25851388      1.78058730     -0.24406465
H       1.93467945      0.93061186      2.27995960
H       2.21301246     -0.49072352      3.27694252
H      -0.08169744     -0.75366740      3.48224153
H      -0.31619662      0.64162993      2.43544719
H      -0.12304261     -2.30493482      1.75606433
