44
CCCCOC(=O)CCCCC(=O)OCCCC
C       7.02565487     -0.15712843     -2.90548442
C       5.96232106     -0.93495624     -2.14667480
C       5.32416802     -0.08709181     -1.04996783
C       4.25898895     -0.86800643     -0.28663007
O       3.71563288     -0.05576755      0.76589161
C       2.66028898      0.73421670      0.42017161
O       2.17621353      0.81811731     -0.69938571
C       2.20559064      1.52471297      1.62617671
C       0.79060303      2.08235936      1.46956408
C      -0.27824566      0.99051308      1.57154443
C      -1.68148938      1.56639118      1.38744995
C      -2.74695432      0.50308836      1.51945608
O      -2.55320575     -0.65601494      1.85596674
O      -3.96224824      1.04393528      1.21949045
C      -5.08279971      0.14989496      1.30781997
C      -5.26774665     -0.58585775     -0.01597030
C      -6.47791780     -1.51488855      0.02263618
C      -6.67088060     -2.23383261     -1.30302633
H       7.46885960     -0.78392801     -3.68566756
H       6.59706270      0.72904008     -3.38447012
H       7.82695960      0.16808294     -2.23452943
H       5.19308285     -1.27287640     -2.85088897
H       6.41678893     -1.83075704     -1.70776299
H       6.08937307      0.26345388     -0.34610559
H       4.88055345      0.81712187     -1.48417379
H       4.70660951     -1.74646877      0.19063747
H       3.46787603     -1.23459908     -0.95135628
H       2.25426764      0.88686104      2.51595410
H       2.91094084      2.35320179      1.75478402
H       0.69419623      2.61071419      0.51337237
H       0.61815941      2.82184206      2.26120385
H      -0.10298507      0.21364965      0.81740309
H      -0.20571847      0.49906983      2.55006832
H      -1.76480301      2.01530865      0.39123308
H      -1.87350747      2.33555140      2.14374688
H      -5.96276282      0.76663757      1.52019557
H      -4.96968522     -0.54431964      2.14924886
H      -4.36238381     -1.15815413     -0.25242445
H      -5.37685326      0.14766248     -0.82458163
H      -6.35124842     -2.25746691      0.81938553
H      -7.38202903     -0.94036898      0.25555493
H      -6.83189475     -1.51927613     -2.11645670
H      -7.54260577     -2.89378454     -1.25347406
H      -5.79622663     -2.84438107     -1.54992484
