27
Nc1ccc(O)c2c1C(=O)c1ccccc1C2=O
N      -2.16933229      2.75245721      0.52933986
C      -2.11799890      1.34992467      0.61408221
C      -3.32245370      0.66254427      0.81724323
C      -3.37164624     -0.72918876      0.76431771
C      -2.22179029     -1.44811959      0.46392785
O      -2.35810596     -2.80977008      0.42067913
C      -1.01184313     -0.78588930      0.21249376
C      -0.95754688      0.61167058      0.28438196
C       0.34115694      1.30154959      0.06078111
O       0.46538079      2.50640318      0.26255413
C       1.51435383      0.52299662     -0.38050145
C       2.71134062      1.18235124     -0.69116033
C       3.82851406      0.45097147     -1.09842109
C       3.75579859     -0.93803068     -1.19348884
C       2.56586362     -1.59716405     -0.88144649
C       1.44393547     -0.86282217     -0.47513345
C       0.19266798     -1.56249107     -0.14295266
O       0.13951934     -2.78937037     -0.16872862
H      -1.23624327      3.18007267      0.58482356
H      -2.83725020      3.19708131      1.14961972
H      -4.24060153      1.21395137      1.00837943
H      -4.31017693     -1.25022918      0.93640385
H      -1.48252164     -3.20054333      0.19737345
H       2.77835668      2.26658024     -0.61688873
H       4.75597814      0.96590631     -1.33974443
H       4.62652021     -1.50862043     -1.50945374
H       2.51812469     -2.68222171     -0.95623570
