42
CCCCC(=O)N(C)c1ccc(S(=O)(=O)N(C)C)cc1
C       6.82017434     -1.94437892      0.16797425
C       5.94605752     -0.70849795      0.30927140
C       4.47657714     -1.02782883      0.03659936
C       3.59970605      0.21878809      0.17989482
C       2.12345514     -0.06721748     -0.09033187
O       1.77388377     -1.21205690     -0.38354850
N       1.24187621      1.02462359      0.04687411
C       1.68563841      2.29967883      0.61611079
C      -0.16977858      0.88580933     -0.22632616
C      -0.65052260     -0.04592936     -1.16187972
C      -2.01762550     -0.17018653     -1.43871487
C      -2.92893842      0.64253931     -0.77042445
S      -4.66675397      0.50690406     -1.10081611
O      -4.86676431     -0.48429710     -2.13736049
O      -5.17963699      1.85322711     -1.24395192
N      -5.27932543     -0.14705185      0.36027441
C      -4.80601245     -1.51414974      0.67815102
C      -6.75435235     -0.05173238      0.45431842
C      -2.48494237      1.59014579      0.14982664
C      -1.11547114      1.70852690      0.41461961
H       6.51681787     -2.72246802      0.87570906
H       7.86666814     -1.69326091      0.36721733
H       6.75642665     -2.35636014     -0.84422341
H       6.05752331     -0.30315746      1.32167147
H       6.29579475      0.06093909     -0.38881732
H       4.13253384     -1.80322676      0.73247293
H       4.37042586     -1.44007774     -0.97466159
H       3.94196752      0.97324028     -0.53726259
H       3.70218955      0.60750386      1.19915290
H       1.12501096      3.13282056      0.17987778
H       1.54726441      2.26825054      1.70127866
H       2.73776016      2.49995800      0.40768269
H       0.02934208     -0.67889554     -1.72702129
H      -2.34955401     -0.89809714     -2.17569048
H      -5.17441531     -1.81064175      1.66595301
H      -3.71505489     -1.55157038      0.72500403
H      -5.16830174     -2.23931871     -0.05652462
H      -7.09020175     -0.41675322      1.43046179
H      -7.07794236      0.99005968      0.37472244
H      -7.23714765     -0.64841817     -0.32555150
H      -3.19634610      2.23190850      0.66557186
H      -0.81800573      2.44064947      1.15988743
