17
CCOC(=O)CO[N+](=O)[O-]
C      -3.18816855     -0.30886506     -0.13288425
C      -1.99585039      0.55818255     -0.48707596
O      -0.80460698     -0.13801887     -0.09692092
C       0.35161865      0.53733736     -0.36160777
O       0.41286973      1.64128557     -0.88427937
C       1.53576089     -0.29071409      0.09098271
O       2.73043247      0.42170383     -0.18945030
N       3.88007322     -0.29146004      0.20672857
O       4.92380521      0.31218702     -0.02933628
O       3.70522237     -1.39596997      0.72405895
H      -4.12444981      0.18199716     -0.41270959
H      -3.12817620     -1.27475709     -0.64528321
H      -3.20628290     -0.51908938      0.94162800
H      -2.05882977      1.51148074      0.04946667
H      -1.97925762      0.74164028     -1.56721020
H       1.51323780     -1.23350254     -0.46798328
H       1.43260189     -0.45343746      1.17018600
