37
COc1ccc(CC2NC(=O)N(C(C)C(=O)O)C2=O)cc1
C       6.33969613      0.59739884     -0.93488470
O       5.64992957     -0.55677945     -0.47217010
C       4.32992457     -0.40095603     -0.15096790
C       3.59293918      0.77829208     -0.25334817
C       2.24155541      0.79777057      0.10967069
C       1.61101396     -0.36111741      0.58015662
C       0.14589762     -0.34345187      0.94635090
C      -0.73535469     -0.90910308     -0.16507212
N      -0.76516010     -0.09228195     -1.35177423
C      -2.01476270      0.41687194     -1.60301357
O      -2.26048587      1.20602362     -2.49932332
N      -2.88549791     -0.09863043     -0.69112675
C      -4.27645017      0.32791529     -0.59616707
C      -5.23669416     -0.80530067     -0.25141164
C      -4.44021990      1.48483016      0.38998119
O      -5.50243087      1.99818424      0.71171770
O      -3.28964946      1.96755209      0.90605636
C      -2.20782835     -0.83924465      0.23858451
O      -2.67414530     -1.35236937      1.24678582
C       2.35439400     -1.54200279      0.68106190
C       3.70283750     -1.55733836      0.31754451
H       5.90786260      0.96608617     -1.87117122
H       7.37567645      0.30892647     -1.13728803
H       6.35566400      1.38120002     -0.17034594
H       4.03754790      1.70105392     -0.61084967
H       1.68565473      1.72949988      0.02163120
H       0.00691201     -0.92179738      1.86922963
H      -0.15856755      0.68187444      1.19689026
H      -0.47426948     -1.93238485     -0.45191497
H       0.03759594      0.16008629     -1.91456328
H      -4.55616202      0.73399733     -1.57643091
H      -5.07460450     -1.67011284     -0.90315411
H      -6.27516763     -0.47810809     -0.37454150
H      -5.13068977     -1.13329926      0.78750430
H      -3.58504780      2.69492396      1.49414973
H       1.89555098     -2.45834227      1.04577542
H       4.27253568     -2.47986657      0.40196826
