35
COCCN(C(=O)CCl)c1c(C)cccc1C
C       3.27724402     -0.32398588      2.64960316
O       2.14298691      0.16409853      1.94580883
C       2.51554459      0.76366470      0.70033342
C       1.26113047      1.25116535     -0.03744368
N       0.46224269      0.15727680     -0.61183116
C       0.95650871     -0.51536027     -1.73111605
O       2.08696324     -0.28093299     -2.17540871
C       0.08006919     -1.56134424     -2.40412459
Cl     -0.59790676     -0.88680852     -3.90003134
C      -0.90555918      0.10484826     -0.23682726
C      -1.33141955     -0.87708524      0.68327819
C      -0.38444045     -1.84372756      1.34162140
C      -2.68143466     -0.91216443      1.06416855
C      -3.59438042     -0.00312158      0.53654656
C      -3.16918464      0.96443248     -0.37005494
C      -1.82686551      1.03107983     -0.77362336
C      -1.42249911      2.13201393     -1.71687396
H       3.97054712      0.49242210      2.87338708
H       2.93537792     -0.76062979      3.59176702
H       3.78316839     -1.10085255      2.06836478
H       3.08370290      0.04288794      0.10411700
H       3.15765752      1.62659615      0.91164865
H       0.64068464      1.83204156      0.65594544
H       1.56416252      1.90811756     -0.86148526
H      -0.73536430     -1.92892444     -1.78272544
H       0.70578770     -2.42025669     -2.66612695
H       0.47385434     -2.08118262      0.70715350
H      -0.88869635     -2.79396313      1.54982032
H      -0.02653956     -1.42724543      2.28766041
H      -3.02757555     -1.64745756      1.78791601
H      -4.63694003     -0.04006614      0.84247645
H      -3.89512957      1.67558594     -0.75952868
H      -0.64910367      1.80689410     -2.41721542
H      -2.27367185      2.46153271     -2.32279097
H      -1.05092172      2.99045114     -1.14871439
