25
CC12CC(C)(NC(=O)N1)NC(=O)N2
C      -2.50957938     -0.67033832     -0.65061202
C      -1.19740551     -0.06756304     -0.14008402
C      -0.02073873     -0.91157873     -0.61715959
C       1.19149075     -0.19242365     -0.03593326
C       2.47315352     -0.93077122     -0.43337562
N       1.24046491      1.15707372     -0.54692065
C       0.13208586      1.92020798     -0.72760720
O       0.20517662      3.11863801     -0.96735204
N      -1.06115934      1.27737283     -0.64726664
N       1.08657884     -0.16005167      1.40371784
C      -0.08746683      0.04103492      2.05541299
O      -0.12819055      0.26531445      3.25836554
N      -1.21504532     -0.03975251      1.30337198
H      -3.37217767     -0.07946964     -0.31969166
H      -2.53406124     -0.70033915     -1.74596990
H      -2.64986601     -1.69152405     -0.27804289
H       0.02508385     -0.94943125     -1.71356705
H      -0.09086061     -1.94181159     -0.24387012
H       3.36055591     -0.43137032     -0.02615843
H       2.47355295     -1.95931032     -0.05467322
H       2.58935820     -0.96812503     -1.52259989
H       2.09224052      1.69489913     -0.46513424
H      -1.85621619      1.90127336     -0.63727893
H       1.90074129      0.05583597      1.96228667
H      -2.04771583      0.26221011      1.79014235
