17
BrCC(CBr)(CBr)CBr
Br     -0.74682467     -2.83441728      0.37654621
C      -0.60052363     -1.23409886     -0.72526974
C      -0.00000014      0.00000001      0.00000104
C      -0.84236543      0.39455970      1.24273444
Br     -2.70346242      0.82686612      0.86083107
C       0.01824370      1.13556908     -1.05820114
Br      0.73277918      2.83203981     -0.41957210
C       1.42464489     -0.29602948      0.54073765
Br      2.71751003     -0.82448975     -0.81780984
H      -0.00464894     -1.53517842     -1.59216364
H      -1.61320586     -1.04517745     -1.09405784
H      -0.88000390     -0.40548596      1.98820835
H      -0.44096686      1.27591274      1.75196569
H       0.62549864      0.87804218     -1.93120809
H      -0.98306229      1.36804439     -1.43311730
H       1.42867081     -1.10877804      1.27329690
H       1.86771690      0.57262120      1.03707835
