38
c1ccc(CNCCNCc2ccccc2)cc1
C       4.96139289      2.01592397      0.79743002
C       4.42629414      1.66961780     -0.44215996
C       3.64557619      0.51911092     -0.57095142
C       3.39784589     -0.30032067      0.53957422
C       2.54958192     -1.54286083      0.40935323
N       1.22970715     -1.33431027      0.99166183
C       0.37370977     -2.51363192      0.83823421
C      -1.10160590     -2.14103508      1.09636095
N      -1.53485376     -1.07455425      0.18127713
C      -2.91088999     -0.66849736      0.45980077
C      -3.36944420      0.37697786     -0.52909832
C      -2.80514962      1.66147045     -0.51302090
C      -3.22108481      2.63153540     -1.42592566
C      -4.20393259      2.32784737     -2.36586101
C      -4.76923735      1.05405819     -2.39536430
C      -4.35363570      0.08193649     -1.48305473
C       3.93324686      0.06497130      1.78350988
C       4.71304556      1.21548171      1.91081178
H       5.56599040      2.91317517      0.89742379
H       4.61321177      2.29807709     -1.30875650
H       3.22866766      0.26732216     -1.54310584
H       2.46595175     -1.81652872     -0.64997550
H       3.06405950     -2.37173226      0.91158747
H       0.76543025     -0.54855900      0.52662798
H       0.68265256     -3.29198226      1.54460369
H       0.45499668     -2.92503551     -0.17590410
H      -1.20936345     -1.80893078      2.13635207
H      -1.72261951     -3.03417575      0.96017590
H      -1.47618802     -1.40172919     -0.78201171
H      -3.58107992     -1.53603854      0.41578603
H      -2.99245578     -0.24942334      1.47045059
H      -2.03004765      1.90321042      0.21196372
H      -2.77501048      3.62221499     -1.40393109
H      -4.52733379      3.08341728     -3.07674831
H      -5.53422244      0.81735918     -3.13014379
H      -4.80421499     -0.90683252     -1.52177881
H       3.73070053     -0.54659644      2.66018904
H       5.12030848      1.48906695      2.88028351
