29
CN(C)C(CSC(N)=O)CSC(N)=O
C       0.52636260     -2.61583108     -1.30631831
N       0.67413649     -1.64478575     -0.22343396
C       0.39832171     -2.28065544      1.06760923
C      -0.11163539     -0.39030499     -0.40144369
C      -1.61034580     -0.61434260     -0.74494700
S      -2.62539920      0.88982463     -0.53599265
C      -2.57531979      0.98204495      1.20041301
N      -2.02730253      2.14561187      1.62049012
O      -2.94641948      0.08610946      1.93956592
C       0.55417963      0.54438337     -1.45494755
S       2.19461935      1.17033532     -0.95013528
C       1.70615096      2.32034452      0.25930989
N       2.78387580      2.79061004      0.92663798
O       0.55596283      2.66756194      0.48095086
H       0.77226573     -2.17776606     -2.27797782
H      -0.48441325     -3.03439015     -1.36099158
H       1.22500465     -3.44842995     -1.16380718
H       0.58354852     -1.58322444      1.89207242
H       1.07283025     -3.12981841      1.22609698
H      -0.63090993     -2.64550391      1.14685369
H      -0.06722467      0.13403208      0.56078586
H      -2.04993977     -1.40027304     -0.12317860
H      -1.71467527     -0.93478055     -1.78747702
H      -1.40268458      2.62658437      0.97717757
H      -1.77705822      2.18981798      2.59727596
H       0.68239988      0.02108888     -2.40795673
H      -0.07229733      1.41283004     -1.67912428
H       2.65990292      3.46897147      1.66275872
H       3.70606390      2.44995545      0.69683446
