21
OCC(CO)(CO)CO
O      -1.88737347      1.62596314     -0.22872820
C      -0.82241215      1.12155185     -1.02661895
C       0.02760509      0.07278446     -0.27864602
C       0.79001633      0.73175223      0.89271875
O      -0.10057883      1.46495522      1.73808882
C      -0.90458166     -1.03380924      0.26364803
O      -0.15037937     -2.12662737      0.79498686
C       1.04997516     -0.52156298     -1.27031853
O       1.97310948     -1.39990930     -0.63665196
H      -1.49237126      1.84998532      0.64323246
H      -0.20739361      1.97099348     -1.34467087
H      -1.27110697      0.68730176     -1.92691427
H       1.30547140     -0.01205673      1.50973218
H       1.53782871      1.43887880      0.51647518
H       0.42794015      1.75267667      2.50610984
H      -1.53568251     -1.43318804     -0.53823779
H      -1.55976168     -0.65841621      1.05704066
H      -0.79662084     -2.72474984      1.21521694
H       0.54540556     -1.07982264     -2.06700529
H       1.63512211      0.27246386     -1.74734691
H       1.43578836     -1.99916443     -0.07211092
