53
CCCCC(CC)COC(=O)CC(C)CC(C)(C)C
C      -2.07780581      2.90434111     -0.80766393
C      -3.09129143      1.98604336     -1.47231509
C      -2.63344365      0.52742312     -1.56369382
C      -2.52787728     -0.15790999     -0.19703596
C      -2.07148860     -1.63362538     -0.27490682
C      -2.97835881     -2.53845278     -1.13311493
C      -4.43637079     -2.59565246     -0.69889613
C      -1.90417525     -2.21653128      1.14324607
O      -0.90718886     -1.49024932      1.88179205
C       0.38052076     -1.88161501      1.67864912
O       0.73520308     -2.81040820      0.96608006
C       1.32335971     -0.99561728      2.45953471
C       2.47405558     -0.46001355      1.58052839
C       3.54554395      0.13839311      2.49150109
C       1.91816300      0.54575069      0.53855364
C       2.86556647      1.11073921     -0.56098385
C       1.97923272      1.69167938     -1.68711841
C       3.75708944      0.01835044     -1.16921398
C       3.73981260      2.26310116     -0.03670081
H      -1.93271256      2.65119534      0.24631551
H      -2.42520764      3.94155006     -0.85344282
H      -1.11005724      2.85031400     -1.31461844
H      -4.04524913      2.04487537     -0.93549976
H      -3.27687707      2.35451636     -2.48842456
H      -3.35951128     -0.00420875     -2.18820141
H      -1.66758821      0.47510756     -2.08041226
H      -1.80697981      0.39443727      0.41652749
H      -3.49054628     -0.08938497      0.32365456
H      -1.08189335     -1.62985166     -0.75182854
H      -2.57288301     -3.55825739     -1.12220001
H      -2.93470829     -2.21640153     -2.17989609
H      -4.53756015     -2.96474591      0.32555897
H      -4.91527505     -1.61464382     -0.76454672
H      -4.99148763     -3.27714422     -1.35200219
H      -2.83695750     -2.12443330      1.70996156
H      -1.65637328     -3.28467763      1.11549206
H       0.77026876     -0.15871417      2.90309354
H       1.70621117     -1.60341894      3.28791298
H       2.91718330     -1.31258320      1.05195632
H       3.22981063      1.10316801      2.90144682
H       3.76527291     -0.52877185      3.33244910
H       4.48813904      0.27304611      1.95644078
H       1.09204528      0.04080811      0.01908454
H       1.45078270      1.38656945      1.06997590
H       1.33298449      2.48965805     -1.30539563
H       1.33706095      0.92039794     -2.12761544
H       2.58673977      2.11428311     -2.49566411
H       3.15706283     -0.82467285     -1.52959558
H       4.33015508      0.40506059     -2.01985338
H       4.48045998     -0.36639884     -0.44336962
H       3.13325003      3.02159556      0.47048340
H       4.50800693      1.92519029      0.66043405
H       4.26588679      2.76078955     -0.86021311
