25
C=C(C)[C@H]1CC=C(C)C(=O)C1
C      -2.70005831     -0.03157716      1.55728529
C      -2.15050731     -0.09307533      0.33174696
C      -3.03481527     -0.03685354     -0.88997434
C      -0.65528745     -0.25498699      0.05562897
C      -0.05328318      1.04309490     -0.51629204
C       1.43468098      0.96128573     -0.70370594
C       2.22998481      0.05260452     -0.11572035
C       3.70405830     -0.04584464     -0.34871951
C       1.63248407     -0.91135063      0.85817793
O       2.32779253     -1.78639397      1.37123761
C       0.18359015     -0.72256669      1.25212014
H      -2.11516555     -0.07727671      2.46958147
H      -3.77405636      0.07060762      1.69036976
H      -4.09838335     -0.01209915     -0.62891999
H      -2.82129741      0.85828665     -1.48165268
H      -2.87224444     -0.91900516     -1.51776997
H      -0.55946836     -1.03633810     -0.71413848
H      -0.50433209      1.25617766     -1.49297150
H      -0.27819944      1.89809620      0.13348690
H       1.86940183      1.69170456     -1.38324193
H       3.96233168     -1.02647509     -0.76155261
H       4.05571391      0.71420414     -1.05445188
H       4.25171907      0.09391432      0.58902450
H       0.16047647     -0.00193389      2.07797905
H      -0.19513528     -1.68419924      1.61867396
