14
CCC(Cl)CBr
C      -1.92246691      0.42413847     -0.04002284
C      -0.45552767      0.41878007      0.37412911
C       0.42182810     -0.50006871     -0.49214463
Cl     -0.08537752     -2.21211038     -0.27195903
C       1.90271491     -0.39979744     -0.14079943
Br      2.67085315      1.27225420     -0.79398847
H      -2.39420394     -0.54991628      0.11796822
H      -2.47580108      1.15846435      0.55446666
H      -2.03015957      0.69453488     -1.09524612
H      -0.09219844      1.45039262      0.30750135
H      -0.38104136      0.13038136      1.43004584
H       0.26535959     -0.27185143     -1.55235131
H       2.49270521     -1.18367387     -0.62605283
H       2.08331552     -0.43152783      0.93774964
