32
Cc1cc(-c2ccc(N=C=O)c(C)c2)ccc1N=C=O
C      -4.02951377     -1.22840867     -1.30385051
C      -3.04608961     -0.58384000     -0.36584881
C      -1.66699185     -0.70959212     -0.61593980
C      -0.70690359     -0.13141950      0.23168105
C       0.73194474     -0.27622463     -0.04136412
C       1.31292608     -1.54116492     -0.20292476
C       2.68100273     -1.67556382     -0.45625081
C       3.51227890     -0.54958884     -0.54346987
N       4.88191249     -0.71485892     -0.82019132
C       5.50425584     -0.90905612      0.15708339
O       6.13371658     -1.10387370      1.13129915
C       2.94012986      0.73071519     -0.42012673
C       3.78028619      1.97191435     -0.54676111
C       1.56337367      0.85091484     -0.15494871
C      -1.16047331      0.58134778      1.34970924
C      -2.52751002      0.72112791      1.60563971
C      -3.48320608      0.16515146      0.74303865
N      -4.85222733      0.30527185      1.03626661
C      -5.28470750      1.31809943      0.62734135
O      -5.72422889      2.33059909      0.22120163
H      -3.53105428     -1.91532512     -1.99606382
H      -4.54228991     -0.46403049     -1.89601541
H      -4.76783500     -1.81296286     -0.74536393
H      -1.33462474     -1.26493858     -1.49257971
H       0.70282301     -2.43905041     -0.12280882
H       3.10028700     -2.67109929     -0.58460687
H       3.15918800      2.87252800     -0.59754987
H       4.37803809      1.93968980     -1.46348371
H       4.44418461      2.06781004      0.31806931
H       1.12656660      1.84404031     -0.05335507
H      -0.44800900      1.02429925      2.04330436
H      -2.84724952      1.26748869      2.49031101
