31
Nc1ccc(S(=O)(=O)Nc2ccccc2[N+](=O)[O-])cc1
N      -3.41222666      0.15350460      2.59953283
C      -2.79368213     -0.00856918      1.35578302
C      -2.08376160     -1.18005700      1.07274498
C      -1.35344652     -1.30535067     -0.11124135
C      -1.29290166     -0.22703366     -0.99573923
S      -0.33897739     -0.35679706     -2.49056992
O      -0.03801328     -1.75544791     -2.70939693
O      -1.00216349      0.43639503     -3.50242727
N       1.09240188      0.46277499     -2.09038129
C       1.81001298      0.06630503     -0.91027551
C       2.41127253     -1.19840700     -0.90469127
C       3.08352901     -1.66830928      0.22639535
C       3.16741649     -0.87896345      1.37046297
C       2.58586289      0.38853707      1.38482503
C       1.91092401      0.86380494      0.24607136
N       1.33427580      2.21109799      0.29952123
O       0.97288592      2.73151646     -0.76817833
O       1.24808898      2.76158974      1.40583302
C      -1.96703911      0.96234735     -0.71376791
C      -2.69006865      1.07408646      0.47606828
H      -4.13427631      0.86775658      2.61227533
H      -3.72571627     -0.71448369      3.02298120
H      -2.09675631     -2.00935982      1.77589613
H      -0.82624639     -2.23314061     -0.32187326
H       0.96747539      1.47475741     -2.22530541
H       2.36682564     -1.83296055     -1.78896472
H       3.54229020     -2.65511192      0.21006760
H       3.69056346     -1.24927862      2.24992343
H       2.66887837      0.99273067      2.28695157
H      -1.91985268      1.80848598     -1.39625817
H      -3.17757512      2.01758013      0.71070232
