16
CC(C)CN
C      -0.78609221      1.57969051     -0.06210657
C      -0.24145726      0.18287353     -0.36887248
C      -1.30218775     -0.87096075     -0.04043100
C       1.06665495     -0.04992911      0.40544525
N       1.68155128     -1.32930466      0.06749425
H      -0.05482202      2.34973552     -0.32977620
H      -1.02134126      1.69031467      1.00198544
H      -1.69977283      1.77533070     -0.63338476
H      -0.03162925      0.13383801     -1.44543559
H      -0.97065392     -1.87371298     -0.32823617
H      -1.53106513     -0.88267263      1.03069753
H      -2.23212943     -0.66594102     -0.58177397
H       1.77936603      0.75146115      0.17888677
H       0.87750701     -0.02197582      1.48461746
H       1.89104785     -1.35562129     -0.92954525
H       2.57502395     -1.41312584      0.55043531
