12
Oc1cccnc1
O      -2.26603050      0.44504614     -0.59124012
C      -0.98911926      0.08710369     -0.28391337
C      -0.07319330      1.00125590      0.21884597
C       1.21769993      0.56699426      0.51208098
C       1.53485436     -0.76527592      0.28862886
N       0.66267461     -1.67392996     -0.19931614
C      -0.58439924     -1.22480056     -0.47545983
H      -2.38046871      1.39032342     -0.39859584
H      -0.34067681      2.03889887      0.38657526
H       1.96163221      1.25037437      0.90618178
H       2.52891867     -1.14766778      0.50286865
H      -1.27189196     -1.96832241     -0.86665621
