22
Clc1ccc(-c2ccc(Cl)c(Cl)c2)cc1
Cl      5.24059013      0.62265645     -0.25161220
C       3.53548678      0.41259534     -0.17051751
C       2.99174295     -0.49964207      0.72901955
C       1.60498875     -0.66997522      0.79326642
C       0.74453462      0.06816690     -0.03808871
C      -0.71483282     -0.11185208      0.03133353
C      -1.29320279     -1.38523714     -0.09519983
C      -2.67959035     -1.55751730     -0.03051052
C      -3.51566324     -0.45665402      0.16322993
Cl     -5.21787684     -0.74029094      0.23290465
C      -2.95958923      0.81883418      0.29206530
Cl     -3.92674752      2.23033510      0.53573287
C      -1.57054079      0.98587521      0.22588758
C       1.31882188      0.98358581     -0.93737294
C       2.70525793      1.15542133     -1.00470934
H       3.63690684     -1.07880620      1.38429031
H       1.19830589     -1.37977556      1.51155006
H      -0.66359456     -2.25887601     -0.25901280
H      -3.09922441     -2.55540078     -0.13556185
H      -1.14946642      1.98363296      0.33936016
H       0.68718689      1.56615118     -1.60591704
H       3.12650631      1.86677285     -1.71013764
