28
CSc1nnc(C(C)(C)C)c(=O)n1N
C       4.07014200      1.56208712      1.82564412
S       3.86040501     -0.08462416      1.11499163
C       2.16114552     -0.02829519      0.66102322
N       1.54899908      1.11012299      0.62343284
N       0.20018718      1.17706889      0.27437328
C      -0.43650532      0.10492454     -0.09102228
C      -1.93114960      0.18464078     -0.46628346
C      -2.46453350      1.61463930     -0.22867222
C      -2.11903669     -0.14374392     -1.95448676
C      -2.75583194     -0.76943033      0.41083401
C       0.27046308     -1.23807964     -0.16090888
O      -0.27664097     -2.22185133     -0.64479762
N       1.56390363     -1.22781210      0.32543049
N       2.26678911     -2.48283458      0.37273289
H       5.08794398      1.65568777      2.21422546
H       3.92245308      2.33510471      1.06654422
H       3.37177688      1.71925382      2.65231041
H      -3.52847661      1.68988832     -0.48159411
H      -2.35247784      1.91280807      0.82039025
H      -1.92874213      2.34907347     -0.84146290
H      -1.88369526     -1.18713179     -2.18357259
H      -1.46949154      0.48046919     -2.57891192
H      -3.15472783      0.02743558     -2.26968089
H      -3.83050660     -0.62441231      0.25124481
H      -2.54788421     -0.60282862      1.47404337
H      -2.54276956     -1.82110487      0.19841781
H       3.16309578     -2.34703097     -0.09991531
H       1.73516529     -3.14402475     -0.20459713
