17
CCCCC
C      -2.43600420     -0.42856889     -0.32290056
C      -1.33002135      0.32817615      0.39521610
C       0.04828953     -0.23824062      0.05521794
C       1.15704818      0.52520977      0.77907239
C       2.52999454     -0.03514680      0.44355579
H      -2.31396269     -0.36461105     -1.40888034
H      -2.43664928     -1.48568008     -0.03855488
H      -3.41267580     -0.00697724     -0.06543719
H      -1.37748323      1.38666555      0.11403071
H      -1.49948646      0.27176958      1.47679721
H       0.21115531     -0.18348647     -1.02812172
H       0.08917095     -1.29820407      0.33442054
H       1.12318413      1.58477640      0.49998566
H       1.00117736      0.46988036      1.86275161
H       2.60799508     -1.08602808      0.74003803
H       3.30759283      0.52542266      0.97177665
H       2.73067509      0.03504285     -0.63028681
