31
COc1ccc(CC2NC(=O)N(C)C2=O)cc1
C       5.47326837     -0.11023718      0.54778771
O       4.66240867      0.92957361      0.01553544
C       3.35709142      0.62090225     -0.25054374
C       2.60840720      1.66796156     -0.79194044
C       1.25999851      1.49222133     -1.11075353
C       0.63932269      0.25769270     -0.89141090
C      -0.82514025      0.06895593     -1.20877178
C      -1.72727071      0.58698548     -0.09324298
N      -1.66108777     -0.19409458      1.11839671
C      -2.89025626     -0.69172519      1.48350300
O      -3.09977272     -1.29118048      2.52404588
N      -3.78704725     -0.37790965      0.50864447
C      -5.18737070     -0.71172147      0.55113541
C      -3.20082598      0.39901025     -0.45162122
O      -3.75003953      0.88286987     -1.43216611
C       1.39144206     -0.79089661     -0.34688701
C       2.74235818     -0.61088477     -0.02900286
H       5.10236565     -0.43908048      1.52417612
H       6.48038773      0.29235331      0.69295135
H       5.54798449     -0.95007891     -0.15093111
H       3.08217147      2.63074689     -0.96886603
H       0.70447285      2.32629734     -1.53384214
H      -1.02482501     -0.99285311     -1.40672672
H      -1.05197428      0.58787410     -2.14937673
H      -1.54530460      1.63598351      0.16214512
H      -0.87839111     -0.21384369      1.76006502
H      -5.33841515     -1.64097936      1.10705434
H      -5.58110146     -0.81005097     -0.46413563
H      -5.71796688      0.09846310      1.06009281
H       0.93155134     -1.76045845     -0.16453307
H       3.28355901     -1.45297830      0.38921859
