35
O=C(OCC(=O)N1CCCCC1)c1ccccc1
O       1.52929298     -0.07277360     -1.77676052
C       2.10145011      0.17381204     -0.72585565
O       1.56921925      0.84808524      0.32465105
C       0.17892361      1.14526121      0.17846929
C      -0.71916110     -0.06504759      0.47896162
O      -0.23931505     -1.11005166      0.92697821
N      -2.09621137      0.08691916      0.26801268
C      -2.65363065      1.17386296     -0.53839367
C      -4.11153077      1.46990422     -0.19883213
C      -4.96021551      0.20525595     -0.21904511
C      -4.36108370     -0.83851063      0.71478134
C      -2.90683283     -1.12802409      0.36017712
C       3.51387977     -0.20210261     -0.44847581
C       4.26878887     -0.75634522     -1.49148684
C       5.59917924     -1.12390320     -1.28003155
C       6.18121490     -0.94279168     -0.02611072
C       5.43545385     -0.39710763      1.01845103
C       4.10417254     -0.02763056      0.81071126
H      -0.05852141      1.92744421      0.90708794
H      -0.01410205      1.54108237     -0.82407360
H      -2.55520532      0.88074359     -1.59048922
H      -2.07563217      2.09073168     -0.39655195
H      -4.16504199      1.92129650      0.79996788
H      -4.51551198      2.20362426     -0.90508924
H      -5.01135708     -0.19285580     -1.23958678
H      -5.98489997      0.43856982      0.09046473
H      -4.94649340     -1.76332737      0.66729768
H      -4.41735185     -0.47301967      1.74781705
H      -2.48747122     -1.81087354      1.10711992
H      -2.84456312     -1.63281188     -0.61189107
H       3.82156464     -0.90571185     -2.47239489
H       6.17895331     -1.55425921     -2.09279161
H       7.21629550     -1.23204508      0.13893141
H       5.88875955     -0.26328892      1.99763487
H       3.53698441      0.38588860      1.64086276
