14
OC/C=C\CO
O       2.65510014      0.24231174     -0.24055054
C       1.45230140     -0.39451221     -0.63842126
C       0.61898388     -0.61801524      0.58024599
C      -0.60936981     -0.14128417      0.84290236
C      -1.45670538      0.74180350     -0.01249206
O      -2.65879403      0.04995630     -0.30728183
H       2.40328545      1.03833863      0.25797022
H       1.70676844     -1.35423420     -1.09792237
H       0.96783599      0.22440371     -1.39628531
H       1.08518539     -1.25472667      1.33218915
H      -1.06405297     -0.41391542      1.79532005
H      -0.98371418      1.02938231     -0.95360814
H      -1.71062054      1.65644129      0.53149869
H      -2.40620377     -0.80594956     -0.69356494
