28
CC1(C)CC(=O)CC(C)(C)N1[O]
C       2.36596925     -0.04527621      1.40661507
C       1.26557013      0.10287984      0.31515746
C       1.66444325      1.30373410     -0.57986016
C       1.34954465     -1.18375771     -0.52860528
C       0.13314717     -1.33681073     -1.39481143
O       0.21995491     -1.64172665     -2.58816857
C      -1.19163625     -1.26588421     -0.69247258
C      -1.29951973      0.01998072      0.14974875
C      -2.51903605     -0.20315153      1.09160838
C      -1.65665040      1.19640172     -0.79401945
N      -0.06786912      0.17064003      0.96696823
O      -0.15789126      1.35986822      1.76698047
H       3.33953795     -0.26994410      0.95394773
H       2.49133823      0.86994011      1.99617270
H       2.13352890     -0.86376553      2.09879421
H       1.57704617      2.26187104     -0.05724624
H       2.71215971      1.21520483     -0.89418552
H       1.07796560      1.35998396     -1.49811555
H       1.40200954     -2.07836448      0.10534383
H       2.24182412     -1.18304342     -1.16621185
H      -1.26737009     -2.16463419     -0.06679042
H      -1.99291936     -1.31990263     -1.43928783
H      -3.41000182     -0.48808125      0.51870834
H      -2.32517618     -1.00786123      1.81127884
H      -2.77760091      0.69965726      1.65640634
H      -1.69882035      2.15600080     -0.26848982
H      -2.64750026      1.04198826     -1.23979985
H      -0.96204780      1.29405298     -1.62966580
