51
CCCCCCCCC(CO)CCCCCC
C      -7.17716344      0.24524700      1.94341778
C      -6.73779585     -0.30454446      0.59567821
C      -5.35659798      0.21954512      0.19992168
C      -4.91939740     -0.34082784     -1.15526994
C      -3.59369216      0.23994707     -1.65563401
C      -2.39342033     -0.14901118     -0.78959987
C      -1.08297107      0.36067122     -1.39762446
C       0.11996357     -0.03248231     -0.53255533
C       1.45632542      0.58443955     -1.00606333
C       1.78879407      0.22268367     -2.46462477
O       1.84220664     -1.18674569     -2.63389013
C       2.62774652      0.14894668     -0.09063143
C       2.56150418      0.74208226      1.31952220
C       3.69030160      0.27611339      2.24852539
C       5.09748564      0.69589933      1.80992141
C       5.85498253     -0.42321973      1.09137004
C       7.23906587      0.03406845      0.65733849
H      -6.47762092     -0.04665638      2.73320745
H      -8.16671995     -0.14158029      2.20618971
H      -7.23442736      1.33820850      1.92140905
H      -7.47549489     -0.02280036     -0.16466070
H      -6.72109467     -1.39967628      0.64195231
H      -4.63307146     -0.06014037      0.97374624
H      -5.37880631      1.31508657      0.15539438
H      -4.84372455     -1.43350977     -1.09757859
H      -5.69249134     -0.11720619     -1.90098535
H      -3.66962139      1.33253621     -1.71452945
H      -3.42846025     -0.12027021     -2.67871119
H      -2.50679183      0.26774157      0.21729731
H      -2.35029051     -1.24012599     -0.68840972
H      -1.12472696      1.45200822     -1.49602435
H      -0.97479018     -0.05690468     -2.40462775
H      -0.08414857      0.29355917      0.49316584
H       0.20171689     -1.12619277     -0.50129140
H       1.37101383      1.67789510     -0.95311748
H       2.75992690      0.64092934     -2.75155700
H       1.04196566      0.62981751     -3.15299145
H       2.05695439     -1.35435735     -3.56727188
H       3.56311699      0.47689320     -0.55837536
H       2.66613439     -0.94550948     -0.02722125
H       2.57319056      1.83704789      1.25552692
H       1.61610427      0.46646492      1.79808371
H       3.49797692      0.72439515      3.23205114
H       3.63351414     -0.80957897      2.39127796
H       5.66925014      0.96639821      2.70711382
H       5.05543015      1.59613807      1.18565512
H       5.95797346     -1.28621614      1.75979760
H       5.30250511     -0.76550480      0.21139471
H       7.76758528     -0.78219137      0.15500554
H       7.17290921      0.87563045     -0.03960808
H       7.83767503      0.34664685      1.51889028
