53
CCCCSC(=Nc1cccnc1)SCc1ccc(C(C)(C)C)cc1
C       7.20510680      2.88315679     -0.25690283
C       5.86401549      2.31217849     -0.68919357
C       5.29158666      1.36409968      0.36653845
C       3.94921006      0.79275327     -0.08499037
S       3.29665239     -0.33526312      1.18086875
C       1.90823211     -0.93748779      0.29854379
N       1.86459380     -2.00827793     -0.42840789
C       2.98876791     -2.83551719     -0.55963556
C       3.76722609     -2.78643190     -1.71425347
C       4.86490552     -3.63457563     -1.84859637
C       5.14070661     -4.52251941     -0.82043166
N       4.40156521     -4.61965152      0.30470409
C       3.34027081     -3.78098999      0.40245275
S       0.47752717      0.06182760      0.46346692
C      -0.79730327     -1.11602398     -0.06346277
C      -2.17934723     -0.53183492      0.09038646
C      -2.87434856     -0.64925461      1.29746361
C      -4.15002449     -0.09350452      1.44068026
C      -4.77516868      0.60144515      0.38784709
C      -6.17737022      1.20322268      0.58504191
C      -7.17762450      0.08589365      0.95349529
C      -6.13741810      2.24478704      1.72390250
C      -6.73287629      1.91680872     -0.66789622
C      -4.06124637      0.71761565     -0.81556847
C      -2.78357941      0.16313900     -0.96221329
H       7.10783302      3.45379139      0.67222810
H       7.93684707      2.08611898     -0.09492227
H       7.59777399      3.55321699     -1.02729921
H       5.16330964      3.13613524     -0.86913424
H       5.98943057      1.77934301     -1.63917269
H       6.00655097      0.55092413      0.54473897
H       5.17132946      1.90835257      1.31190728
H       3.23094411      1.60271078     -0.24888172
H       4.07135305      0.24989395     -1.02749842
H       3.51672780     -2.09110388     -2.50933256
H       5.48582335     -3.60813584     -2.73700729
H       5.98599560     -5.20229467     -0.87956224
H       2.75410779     -3.89068682      1.30985381
H      -0.63598194     -1.39545108     -1.11091966
H      -0.72428697     -2.03405796      0.53111819
H      -2.42707273     -1.17024240      2.14136514
H      -4.65029611     -0.20920163      2.39991389
H      -7.20481265     -0.69037013      0.17960741
H      -6.92333135     -0.40282301      1.90026158
H      -8.19302237      0.48445064      1.06263774
H      -7.11711748      2.71672562      1.86296127
H      -5.41245237      3.03854160      1.50709998
H      -5.85750746      1.79844195      2.68436771
H      -6.81865566      1.23043536     -1.51810946
H      -6.09672348      2.75710242     -0.96995781
H      -7.73396162      2.32318696     -0.47961583
H      -4.47438443      1.24516407     -1.67072235
H      -2.26247933      0.28423655     -1.90976472
