30
C=COC(=O)C(CC)CCCC
C       4.02232672     -1.75245510     -1.39737349
C       3.16213262     -1.54517206     -0.39879429
O       2.26931158     -0.47418590     -0.42088777
C       1.42205696     -0.36824345      0.65518410
O       1.38149933     -1.11388144      1.62670341
C       0.51835643      0.84261571      0.47032959
C       0.87727902      1.86676065      1.55988123
C       0.25436976      3.23628925      1.33127708
C      -0.95717954      0.41109592      0.51787453
C      -1.33758727     -0.50624033     -0.65117197
C      -2.82133699     -0.87329360     -0.60709273
C      -3.20444629     -1.78321560     -1.76331203
H       4.05288184     -1.09295451     -2.25799551
H       4.71261122     -2.58864315     -1.36992797
H       3.10450997     -2.18276863      0.47449276
H       0.72394491      1.28862021     -0.51167497
H       1.96755348      1.98890451      1.59752653
H       0.57628445      1.49230590      2.54629544
H       0.61760649      3.94316069      2.08433227
H       0.51917256      3.62878355      0.34445966
H      -0.83576785      3.20240711      1.41003161
H      -1.16952853     -0.10157914      1.46464755
H      -1.60255653      1.29590597      0.48431816
H      -1.11247950     -0.00343249     -1.59957809
H      -0.73834322     -1.42366683     -0.62085159
H      -3.43187658      0.03621427     -0.64823634
H      -3.05217778     -1.37698479      0.33878641
H      -2.63466727     -2.71743422     -1.73281346
H      -3.01505500     -1.29614192     -2.72519552
H      -4.26889500     -2.03277059     -1.71261679
