67
CCCCCCCC/C=C\CCCCCCCCCCCC(N)=O
C     -11.24598317      0.63778383      0.71664186
C      -9.73047990      0.75706472      0.66140509
C      -9.15559686     -0.00093900     -0.53598903
C      -7.64442760      0.18484758     -0.70880532
C      -6.82227627     -0.45269776      0.41441752
C      -5.31136508     -0.25994589      0.24274639
C      -4.73274121     -1.02058221     -0.95519519
C      -3.20259615     -0.96020547     -1.01413886
C      -2.68427499      0.41759282     -1.31752302
C      -1.99757916      1.23192613     -0.49980106
C      -1.62360971      0.98597478      0.93505378
C      -0.11103044      0.85267843      1.14118976
C       0.46688479     -0.41478609      0.50253503
C       1.94318947     -0.64885862      0.84342133
C       2.87794572      0.39589221      0.22778336
C       4.35593928      0.16862286      0.56651794
C       4.94611460     -1.08093654     -0.09226244
C       6.42777540     -1.29764318      0.23394021
C       7.34723596     -0.23132771     -0.36604897
C       8.81957508     -0.56820646     -0.12167983
C       9.73933398      0.49438932     -0.71903995
C      11.20180931      0.17721267     -0.49176512
N      12.05917617      1.10363192     -1.01077901
O      11.62379565     -0.80571859      0.10324283
H     -11.55384715     -0.40913909      0.80187551
H     -11.70623669      1.05957064     -0.18254065
H     -11.63721149      1.17894578      1.58370717
H      -9.31563145      0.36601475      1.59635035
H      -9.45566170      1.81634533      0.59942170
H      -9.64842640      0.35234425     -1.45054590
H      -9.38735895     -1.06923192     -0.44582137
H      -7.36380225     -0.26442536     -1.66790721
H      -7.41125202      1.25408276     -0.77920067
H      -7.10437173     -0.00575498      1.37419873
H      -7.05225403     -1.52271464      0.48291642
H      -5.09226220      0.81059193      0.15589685
H      -4.81810121     -0.61108227      1.15769089
H      -5.03375900     -2.07344674     -0.89103385
H      -5.14731155     -0.62828227     -1.89087325
H      -2.85759839     -1.62652574     -1.81474555
H      -2.77935012     -1.36442060     -0.08934945
H      -2.88261211      0.77077681     -2.32937365
H      -1.68519589      2.19744888     -0.89741656
H      -2.13191851      0.10973873      1.34901405
H      -1.98112576      1.84219855      1.52074758
H       0.08933680      0.83445945      2.21951037
H       0.38854126      1.74209257      0.74043280
H      -0.10519254     -1.28214790      0.85494483
H       0.34947573     -0.37964644     -0.58676836
H       2.07166793     -0.66760235      1.93232489
H       2.21234481     -1.64498267      0.47533642
H       2.60560999      1.39098607      0.59685194
H       2.74882006      0.41536071     -0.86106270
H       4.90889431      1.05318548      0.23147209
H       4.48001258      0.11013605      1.65443831
H       4.40050962     -1.96772126      0.24846694
H       4.81384354     -1.02564436     -1.17942185
H       6.56389972     -1.33625362      1.32164986
H       6.72088516     -2.28065253     -0.15585789
H       7.16364710     -0.15153667     -1.44431985
H       7.12753430      0.74702239      0.07544546
H       9.05325470     -1.54627093     -0.56046241
H       9.00499183     -0.65374885      0.95634362
H       9.52635075      1.47055401     -0.26791990
H       9.56932740      0.57104001     -1.79939098
H      13.04943193      0.91007318     -0.93599393
H      11.75528675      1.84249310     -1.62876174
