21
O=C(O)c1cccc(C(=O)O)c1C(=O)O
O      -2.71662752      1.00656244      1.29939022
C      -2.49743249      0.07913329      0.54659885
O      -3.48946992     -0.60025356     -0.05505433
C      -1.17311420     -0.46011331      0.17459061
C      -1.00458180     -1.84990655      0.07433065
C       0.25209962     -2.38527471     -0.20350253
C       1.34431490     -1.53630781     -0.38632592
C       1.18734151     -0.14218712     -0.29818234
C       2.34832290      0.74002212     -0.56411566
O       2.32427576      1.86781007     -1.01413198
O       3.51092313      0.14267696     -0.24376935
C      -0.07692787      0.39313039     -0.01204068
C      -0.27971110      1.84254903      0.05535407
O      -0.95290872      2.50116452     -0.71134773
O       0.34884613      2.34941137      1.12778441
H      -4.30288090     -0.12896746      0.22563340
H      -1.84955302     -2.51943772      0.22591783
H       0.38131251     -3.46315978     -0.27793778
H       2.31712480     -1.96915322     -0.61428199
H       4.18787243      0.82519102     -0.43978315
H       0.14077386      3.30711002      1.09087342
