14
C/C=C(\C)C=O
C       1.80475648     -0.60393206     -0.59565398
C       0.59565394      0.26361204     -0.75205215
C      -0.50080764      0.28166988      0.02840642
C      -0.77882135     -0.55638785      1.23733473
C      -1.57722734      1.24654037     -0.34183065
O      -2.61908326      1.35160719      0.29428446
H       1.75208111     -1.28270843      0.25731975
H       2.69283291      0.02352979     -0.47009678
H       1.94126226     -1.20914865     -1.49744793
H       0.65696904      0.93794683     -1.60600973
H       0.03040239     -1.24938823      1.47683298
H      -0.93021908      0.08123365      2.11493555
H      -1.68365956     -1.15449900      1.08503026
H      -1.38413991      1.86992447     -1.23105293
