24
C=CCCCC(C)C
C       4.02742771      0.96074297      0.66295600
C       3.17658098      0.05541829      0.16391499
C       1.85869031     -0.29741224      0.79177332
C       0.69134365      0.03163222     -0.14278960
C      -0.65001519     -0.34640830      0.49390430
C      -1.86935720      0.07537604     -0.34686515
C      -3.15756097     -0.20450970      0.43126142
C      -1.92039193     -0.63466093     -1.70043458
H       3.80695563      1.51201172      1.57175720
H       4.96974249      1.17004868      0.16595318
H       3.44533732     -0.47442550     -0.74789828
H       1.73045485      0.23202724      1.74382971
H       1.85980512     -1.36969011      1.02137270
H       0.82284425     -0.50786451     -1.08791623
H       0.69671163      1.10339811     -0.37765666
H      -0.71840658      0.13306770      1.47901471
H      -0.67684693     -1.42945894      0.66964938
H      -1.81504295      1.15633994     -0.52800517
H      -4.03461819      0.12528061     -0.13574206
H      -3.15950784      0.33053617      1.38682806
H      -3.27135293     -1.27367693      0.64056959
H      -1.90604607     -1.72300769     -1.57874298
H      -1.07372427     -0.35015702     -2.33225585
H      -2.83302287     -0.36789580     -2.24447802
