15
O=[N+]([O-])c1ccc(F)cc1O
O       2.97217301      0.08739015     -0.10770558
N       2.10459399     -0.80077411     -0.11672048
O       2.34300887     -2.01418225     -0.18258974
C       0.70396723     -0.37568040     -0.04409882
C      -0.30304381     -1.35733752     -0.05224342
C      -1.64383854     -0.97255282      0.01623864
C      -1.96903565      0.37808725      0.09180075
F      -3.25623234      0.74051750      0.15721834
C      -0.98034688      1.35632039      0.10047358
C       0.36262898      0.98428880      0.03250820
O       1.25445032      2.02233845      0.04763058
H      -0.06222577     -2.41737054     -0.11100591
H      -2.43677844     -1.71521510      0.01124693
H      -1.26194314      2.40354590      0.16016923
H       2.17262217      1.68062430     -0.00292229
