22
CC(C)C(=O)C(C)C
C      -2.05459696     -0.10348376      1.01277783
C      -1.16668808      0.62098856      0.00820639
C      -1.45012258      2.12029594      0.00593466
C       0.29958331      0.34371351      0.33454387
O       0.95213117      1.09238687      1.06324252
C       0.91688893     -0.90758643     -0.28715645
C       2.00530014     -1.48333748      0.61402788
C       1.46954708     -0.56774726     -1.66609976
H      -3.11344008      0.06213698      0.78871082
H      -1.87096519     -1.18294009      0.99430252
H      -1.86297522      0.24308469      2.03445950
H      -1.36995027      0.23967808     -0.99915149
H      -1.29776310      2.56065129      0.99754811
H      -0.78509411      2.63978445     -0.69254229
H      -2.48321195      2.31962635     -0.29735643
H       0.12913573     -1.66327585     -0.38646016
H       1.61027577     -1.69304678      1.61401706
H       2.84354003     -0.78717089      0.72861085
H       2.39680836     -2.41875884      0.20086943
H       1.90030391     -1.45397703     -2.14341530
H       0.68228207     -0.18084459     -2.32169698
H       2.24901103      0.19982230     -1.60337258
