23
CCCCOCC1CO1
C      -3.45261453      0.14985369      0.85081090
C      -2.85149110     -0.65414858     -0.29155039
C      -1.37809189     -0.99955692     -0.08279213
C      -0.46028295      0.21812801     -0.06641898
O       0.88693492     -0.24295717      0.03881464
C       1.81349901      0.84215440      0.05534920
C       3.18756497      0.27968980      0.17825926
C       3.96870227     -0.14226698     -1.03603371
O       4.22802562      1.10171402     -0.36557446
H      -4.52684724      0.28600574      0.68949306
H      -3.00054122      1.14332655      0.92345958
H      -3.31632503     -0.36409525      1.80754565
H      -3.41644489     -1.58815393     -0.39555989
H      -2.97590098     -0.10256103     -1.23064206
H      -1.25042902     -1.56617156      0.84814651
H      -1.05425273     -1.67615516     -0.88400265
H      -0.68621021      0.86225191      0.78986629
H      -0.57811222      0.79378957     -0.99152345
H       1.70593418      1.42997142     -0.86392920
H       1.60669666      1.48961336      0.91477941
H       3.36498787     -0.22338201      1.11844393
H       3.48613136     -0.10365008     -2.00443461
H       4.69906714     -0.93339980     -0.92384695
