18
CC(CO)(CO)[N+](=O)[O-]
C       0.60343505      1.23408185      0.80209148
C      -0.08186093      0.29961000     -0.20255218
C       0.94123149     -0.46610665     -1.05748123
O       1.83608545     -1.25702515     -0.27084005
C      -1.03134890     -0.67450401      0.52112317
O      -0.29871042     -1.59792791      1.33575941
N      -0.90155832      1.16795426     -1.14690890
O      -0.28373915      1.92459024     -1.90809664
O      -2.13617783      1.08375393     -1.09383658
H      -0.13131905      1.83761211      1.34801092
H       1.18538686      0.67244000      1.54080623
H       1.28974525      1.92868728      0.30382467
H       0.43900174     -1.13661770     -1.76478019
H       1.56724380      0.21211732     -1.64778732
H       1.30449009     -1.69828211      0.42685586
H      -1.73195601     -0.13947178      1.17314590
H      -1.61293306     -1.27024326     -0.19226241
H      -0.95701608     -2.12066840      1.83292787
