36
Cc1ccc(N/N=C2\C(=O)C=Cc3ccccc32)c([N+](=O)[O-])c1
C       6.11911759      0.35533448     -0.37122040
C       4.66269512      0.39622394     -0.01643136
C       4.18012982      1.32864082      0.90588087
C       2.82378553      1.34867794      1.26156315
C       1.89714770      0.44595105      0.70907710
N       0.56141554      0.54081349      1.14344856
N      -0.42424136     -0.02361307      0.40723738
C      -1.66163019      0.30417604      0.66950197
C      -2.05582548      1.32688737      1.73593166
O      -1.21975599      2.04464589      2.27359058
C      -3.48162492      1.44567396      2.09532502
C      -4.42190398      0.78326902      1.41554999
C      -4.09662314     -0.08803543      0.28602314
C      -5.13367657     -0.70135188     -0.43075008
C      -4.84987378     -1.54527940     -1.50692197
C      -3.52882244     -1.78668410     -1.87524392
C      -2.48810617     -1.18402504     -1.16922469
C      -2.76854607     -0.33342062     -0.09125095
C       2.41590696     -0.50654488     -0.17859870
N       1.58186368     -1.54460991     -0.74228376
O       1.23150490     -1.40479165     -1.92548204
O       1.37502217     -2.55054109     -0.04627882
C       3.77351182     -0.53973966     -0.54880585
H       6.65477858     -0.30151419      0.32096534
H       6.26178135     -0.01392112     -1.39225527
H       6.56076610      1.35625948     -0.32341230
H       4.85539213      2.05160273      1.36025924
H       2.49160131      2.09323040      1.98338321
H       0.34155592      1.38294036      1.69273068
H      -3.71984024      2.10767982      2.91897380
H      -5.46687981      0.89381046      1.69201829
H      -6.17394653     -0.53172038     -0.16070512
H      -5.66044341     -2.01768794     -2.05707134
H      -3.30396081     -2.44643000     -2.71028539
H      -1.46150579     -1.38615535     -1.46753781
H       4.12923048     -1.29975154     -1.24220545
