19
Cn1c(=O)[nH]c2[nH]c(=O)[nH]c2c1=O
C      -2.91018724      0.54462942      0.04500446
N      -1.51946724      0.13840421      0.03434874
C      -1.26517613     -1.23639708      0.12908355
O      -2.14069472     -2.09428464      0.21858080
N       0.06021516     -1.60904927      0.11785067
C       1.05264919     -0.70751084      0.02167383
N       2.39408688     -0.93116416     -0.00110725
C       3.05311507      0.31257757     -0.11292976
O       4.25128243      0.50810832     -0.16266518
N       2.02088163      1.26495620     -0.15340661
C       0.83095352      0.60102979     -0.06909231
C      -0.53623535      1.12683432     -0.06801740
O      -0.73693247      2.33474723     -0.15191983
H      -3.42566797      0.06739847     -0.79479295
H      -3.37368600      0.19894491      0.97473563
H      -3.02804793      1.62829395     -0.03209272
H       0.25257703     -2.59909862      0.18580160
H       2.87878160     -1.81252889      0.05017546
H       2.14155254      2.26410911     -0.23123074
