38
COc1cc(OC)cc(C(=O)N(O)c2cccc(C)c2)c1
C      -5.05793853      3.19197757      1.00304325
O      -3.64284661      3.04739307      1.01542302
C      -3.13560890      1.88333756      0.50764894
C      -3.87951632      0.79893414      0.03783142
C      -3.24472537     -0.34368566     -0.46786881
O      -4.09805002     -1.32223085     -0.90170328
C      -3.50812958     -2.51112449     -1.41476722
C      -1.85286731     -0.40373579     -0.49592295
C      -1.10373049      0.67102919     -0.00132523
C       0.38122215      0.64964548     -0.03719036
O       0.91857887      1.61487296     -0.57645860
N       1.02245802     -0.43501390      0.55579613
O       0.21313164     -1.36608865      1.25187550
C       2.41009885     -0.75396212      0.52492805
C       2.87042069     -1.93320203      1.13542914
C       4.22681489     -2.27103607      1.13382979
C       5.15244502     -1.43740617      0.51447783
C       4.72536083     -0.26842573     -0.11871782
C       5.71755982      0.65371017     -0.76541583
C       3.35972014      0.06804814     -0.09808679
C      -1.74317092      1.81735651      0.48044213
H      -5.53545383      2.44411206      1.64459339
H      -5.29632647      4.17968986      1.40926530
H      -5.45142516      3.14785744     -0.01793726
H      -4.96501472      0.81087572      0.04518517
H      -2.91214758     -2.30109101     -2.30900782
H      -4.31800806     -3.18704632     -1.70564949
H      -2.91034379     -3.01730430     -0.64954533
H      -1.32731594     -1.26510358     -0.89490996
H       0.21656772     -0.97328355      2.14486386
H       2.17891176     -2.61858484      1.61859333
H       4.55792757     -3.18726591      1.61588285
H       6.20614401     -1.70644789      0.52421838
H       5.28251419      1.13749955     -1.64625036
H       6.03039065      1.42426824     -0.05415903
H       6.60294362      0.10400863     -1.10181123
H       3.06526112      0.99380848     -0.58398849
H      -1.15585196      2.66361408      0.83052205
