37
CCCCCCN1CC(C(=O)OC)CC1=O
C      -4.50409151     -1.51794224     -0.26438995
C      -3.57184760     -1.24158913     -1.43379516
C      -3.00551180      0.17993182     -1.44143630
C      -2.08664564      0.47234654     -0.25251530
C      -1.45618581      1.86304048     -0.37048891
C      -0.60821771      2.24584320      0.84510865
N       0.56006688      1.40347252      1.03825796
C       1.66980362      1.39399082      0.11883570
C       2.71722628      0.55201422      0.82923607
C       3.61669987     -0.13819340     -0.16189806
O       3.74575087      0.19460512     -1.33196104
O       4.31223111     -1.13995083      0.44408065
C       5.21883213     -1.82904578     -0.41918788
C       1.88759753     -0.41962093      1.66845017
C       0.59349258      0.31725069      1.89722697
O      -0.27523990     -0.02141032      2.68329440
H      -5.31524703     -0.78406880     -0.22615059
H      -4.95122449     -2.51189576     -0.36777032
H      -3.96931735     -1.49401184      0.68956070
H      -4.12697513     -1.39882785     -2.36630651
H      -2.75239072     -1.96969288     -1.42667084
H      -2.44238547      0.31902558     -2.37266840
H      -3.82955412      0.90357532     -1.45939538
H      -1.30150374     -0.29090935     -0.20994710
H      -2.65391982      0.41353781      0.68293891
H      -2.25276027      2.60932699     -0.48002324
H      -0.84848855      1.91395126     -1.28171030
H      -0.25065224      3.27570387      0.73504521
H      -1.22415662      2.20668513      1.75075967
H       1.33470593      0.95336601     -0.82658600
H       2.01765833      2.41629101     -0.05910753
H       3.33138763      1.18736445      1.47931579
H       4.67850840     -2.29557232     -1.24883549
H       5.98709915     -1.14426856     -0.79149850
H       5.70766323     -2.61583289      0.16190086
H       1.67329681     -1.35664185      1.14401829
H       2.37429517     -0.63331361      2.62431280
