56
CC(=O)Nc1ccc(NC(=O)C2=Cc3ccccc3/C(=N/Nc3cc(C(N)=O)ccc3Cl)C2=O)cc1
C       9.32363631      2.78761568      0.89208732
C       7.82346100      2.64100254      0.81576165
O       7.09683586      3.61811056      0.95922098
N       7.42851510      1.34290252      0.54928385
C       6.11138514      0.85499358      0.42797126
C       4.96876839      1.63599403      0.58632781
C       3.69513976      1.06609618      0.45593409
C       3.54056441     -0.29282505      0.16247649
N       2.22208389     -0.77919089      0.04985244
C       1.81301669     -2.06214823     -0.24253301
O       2.55370524     -3.01759399     -0.46006541
C       0.32225044     -2.25174932     -0.29094006
C      -0.13830486     -3.49695267     -0.50138979
C      -1.56127213     -3.83212581     -0.54129434
C      -1.95519602     -5.17236442     -0.65578099
C      -3.30931397     -5.51088119     -0.71272401
C      -4.28221967     -4.51483422     -0.66005586
C      -3.90199071     -3.17782562     -0.54837932
C      -2.54318684     -2.83826591     -0.48579407
C      -2.12584846     -1.42076803     -0.37427851
N      -3.02091775     -0.48065557     -0.52097079
N      -2.61461423      0.81157426     -0.44210187
C      -3.58128366      1.83481859     -0.29647412
C      -4.93737244      1.60396449     -0.59040918
C      -5.88841691      2.62914617     -0.48401425
C      -7.33962434      2.42803793     -0.76064533
N      -7.78597478      1.17037156     -1.05397201
O      -8.13199637      3.36301223     -0.72103645
C      -5.46949996      3.91367865     -0.11121611
C      -4.12391102      4.17083810      0.15453976
C      -3.18886528      3.13920178      0.05784594
Cl     -1.53143605      3.50451933      0.39788369
C      -0.64965025     -1.15188734     -0.09077702
O      -0.28919229     -0.04614938      0.30471943
C       4.68300716     -1.07380596      0.00346278
C       5.95673537     -0.50445229      0.13658072
H       9.57354655      3.50888694      1.67657460
H       9.81134785      1.83939282      1.13927300
H       9.69822961      3.14678701     -0.07090298
H       8.16351366      0.65882931      0.42276466
H       5.02748624      2.69530311      0.81458649
H       2.82823446      1.71028463      0.58802203
H       1.49036617     -0.08871491      0.22099162
H       0.55802522     -4.32380443     -0.63931462
H      -1.21430209     -5.96954516     -0.70228569
H      -3.60459482     -6.55471149     -0.80101553
H      -5.33612021     -4.77966518     -0.70716970
H      -4.66903722     -2.40734924     -0.50876314
H      -1.71626121      1.03983112      0.00897349
H      -5.22313428      0.60854263     -0.90780222
H      -8.77858912      1.07026711     -1.22377855
H      -7.21714680      0.33970013     -1.06776757
H      -6.19317713      4.72366434     -0.02985092
H      -3.81399807      5.17393368      0.43368355
H       4.62461535     -2.13338452     -0.22229315
H       6.82197906     -1.14965019      0.00554208
