18
O=[N+]([O-])c1cc([N+](=O)[O-])c(Cl)c([N+](=O)[O-])c1
O       0.75150681      3.40031988     -0.99896579
N      -0.28446863      2.76239325     -0.77633336
O      -1.43273404      3.21410534     -0.86120060
C      -0.13945981      1.35424396     -0.38061173
C      -1.27939323      0.58491081     -0.11778482
C      -1.11369627     -0.75897274      0.25804537
N      -2.31100205     -1.52094136      0.52041574
O      -2.74971434     -2.20194021     -0.41216497
O      -2.81403286     -1.38948646      1.64113277
C       0.14038238     -1.36265097      0.38386401
Cl      0.31188613     -3.01018286      0.87607781
C       1.24908552     -0.55753603      0.10902089
N       2.58096454     -1.10388232      0.21187170
O       3.00841985     -1.71102117     -0.77534768
O       3.19042938     -0.87760646      1.26243319
C       1.13762224      0.79097060     -0.27023061
H      -2.28035576      1.00970694     -0.19903631
H       2.03456013      1.37756980     -0.47118563
