42
CC(=O)C(N=Nc1ccc([N+](=O)[O-])cc1)C(=O)Nc1ccc2[nH]c(=O)[nH]c2c1
C      -0.44285897     -3.33505927      3.39096848
C      -0.88744842     -2.62154802      2.13913367
O      -1.35257889     -3.25744640      1.18956332
C      -0.69837563     -1.11473084      2.10747908
N      -1.54610348     -0.56221513      1.02565061
N      -2.61712585     -0.07944992      1.45267222
C      -3.42559420      0.33281936      0.37919656
C      -3.94157526     -0.59099165     -0.54310136
C      -4.76646913     -0.17098688     -1.59134899
C      -5.08547958      1.18747377     -1.71311772
N      -5.95045075      1.63822823     -2.81136915
O      -6.38318860      0.78011852     -3.59297510
O      -6.19289873      2.85079727     -2.89199492
C      -4.58751482      2.11999863     -0.79324510
C      -3.76391325      1.68537449      0.25078300
C       0.75775511     -0.75333223      1.84105869
O       1.60018700     -0.92162297      2.72134810
N       1.00841648     -0.28062718      0.56463548
C       2.23920272      0.12500724      0.01086129
C       2.21253840      0.55574232     -1.34291741
C       3.37102289      0.98445444     -2.00550547
C       4.53399210      0.96783495     -1.27866153
N       5.82357639      1.32803602     -1.65085951
C       6.67875863      1.13528617     -0.55565588
O       7.87720329      1.34853921     -0.52387314
N       5.88387257      0.65050485      0.49280167
C       4.56963197      0.54801353      0.04790069
C       3.44614295      0.12192809      0.72063167
H      -0.86022527     -2.83604540      4.26865284
H      -0.81034390     -4.36502040      3.37473256
H       0.64719582     -3.34825941      3.44594132
H      -0.98651449     -0.68704505      3.07600111
H      -3.69634643     -1.64765900     -0.43932055
H      -5.14911277     -0.90998481     -2.29261596
H      -4.83132563      3.17796734     -0.87084928
H      -3.38199002      2.40601336      0.97097139
H       0.19530494     -0.22713597     -0.04373894
H       1.27580702      0.55722131     -1.89736823
H       3.34273798      1.30969796     -3.03812377
H       6.13138778      1.67130789     -2.54562568
H       6.23725977      0.42063724      1.40722172
H       3.52544027     -0.19384170      1.75174582
