41
Cc1c(F)c(F)c(COC(=O)C2C(/C=C(\Cl)C(F)(F)F)C2(C)C)c(F)c1F
C      -4.67552920      3.69515128      1.31130141
C      -3.91915191      2.40545909      1.30883316
C      -4.00180996      1.52624018      0.22918984
F      -4.79468826      1.82488197     -0.80914863
C      -3.27805495      0.33251690      0.21440299
F      -3.39145594     -0.49313365     -0.83430250
C      -2.44227596     -0.01688241      1.27374410
C      -1.64021104     -1.27937039      1.23185306
O      -0.48030575     -1.01499732      0.44205296
C       0.19582817     -2.12791974      0.06554661
O      -0.07887150     -3.27701948      0.37120271
C       1.32487938     -1.80432297     -0.83643498
C       2.25345820     -0.64467982     -0.53799813
C       2.68393116      0.23348340     -1.63845694
C       1.96155882      1.17903998     -2.27192817
Cl      0.30975780      1.47913688     -1.82691805
C       2.48515605      2.05334411     -3.37420657
F       3.79662092      1.81154217     -3.64918513
F       1.81076802      1.86753510     -4.53777800
F       2.39874198      3.37328044     -3.07010120
C       2.76647570     -2.07236395     -0.42962249
C       3.06677743     -2.58204619      0.96070041
C       3.66782619     -2.66791982     -1.48415163
C      -2.33900176      0.87291793      2.34173479
F      -1.53109791      0.58292549      3.37114599
C      -3.06593044      2.06548330      2.36001246
F      -2.94189023      2.89141697      3.40740252
H      -5.63003244      3.59057516      0.78279576
H      -4.08612198      4.47812896      0.82895202
H      -4.91103120      4.00632923      2.33459890
H      -1.33529703     -1.58298983      2.23992170
H      -2.24296412     -2.08598309      0.79771095
H       1.07319641     -1.98965422     -1.87362365
H       2.09901586     -0.10576496      0.39548604
H       3.72312396      0.11517542     -1.94396021
H       4.11314237     -2.38919954      1.21673965
H       2.44711014     -2.10056650      1.72450058
H       2.89493472     -3.66224275      1.01696648
H       4.70739439     -2.37639422     -1.30282099
H       3.39594715     -2.34933555     -2.49574660
H       3.61007674     -3.76177758     -1.45774377
