23
c1ccc2c(c1)cnc1ccccc12
C       3.50641798     -0.20574663      0.00231434
C       2.83631640     -1.41459706      0.12694525
C       1.43770629     -1.44173902      0.13696753
C       0.66076470     -0.26062813      0.02266918
C       1.36976876      0.95235543     -0.10258635
C       2.77710899      0.97410412     -0.11211237
C       0.63156224      2.12421206     -0.21616550
N      -0.71610782      2.18973269     -0.21568346
C      -1.39856111      1.04409343     -0.09731905
C      -2.78476388      1.12331550     -0.09802842
C      -3.59148357     -0.00844279      0.01959135
C      -3.00174307     -1.25596990      0.14152721
C      -1.61026071     -1.36143596      0.14483154
C      -0.77461801     -0.22026068      0.02611881
H       4.59283706     -0.18030613     -0.00590658
H       3.39705617     -2.34165804      0.21692075
H       0.96164264     -2.41329642      0.23681898
H       3.31334237      1.91598109     -0.20930405
H       1.12119261      3.08997261     -0.31550846
H      -3.25209123      2.10112256     -0.19358141
H      -4.67334150      0.09203262      0.01517847
H      -3.61765597     -2.14672283      0.23402099
H      -1.18508936     -2.35611854      0.24229125
