32
COC(C)C(NC(=O)c1ccccc1)C(=O)O
C      -2.87186430      1.81419875     -1.04190671
O      -2.18535044      0.63098343     -1.43599755
C      -2.53942274     -0.51720498     -0.63217137
C      -2.34203495     -1.73699430     -1.53613001
C      -1.64369281     -0.55489956      0.63571258
N      -0.22298086     -0.46937466      0.23045031
C       0.77817931     -0.17148032      1.12263488
O       0.60341175     -0.29854844      2.33070011
C       2.07908510      0.29233438      0.56994475
C       2.48530695     -0.01000528     -0.73638925
C       3.71809452      0.44873758     -1.20727981
C       4.54893663      1.20124112     -0.37734083
C       4.15518829      1.49195135      0.92807670
C       2.92473010      1.03541865      1.40346721
C      -2.07578249     -1.73494985      1.52940982
O      -3.22116142     -2.17171316      1.55688589
O      -1.13730474     -2.20358778      2.37877509
H      -2.55171110      2.62821414     -1.69783280
H      -3.95233463      1.68326445     -1.15365101
H      -2.62824470      2.08441273     -0.01116978
H      -3.60118023     -0.46335680     -0.35924723
H      -1.31210973     -1.80439304     -1.90275081
H      -2.97788645     -1.64905841     -2.42445230
H      -2.59541888     -2.67167721     -1.02882287
H      -1.82877226      0.34713976      1.23239384
H      -0.11355120     -0.06535008     -0.69536915
H       1.87253413     -0.62021047     -1.39381203
H       4.03599679      0.21173270     -2.22007939
H       5.50940414      1.55435245     -0.74573636
H       4.80747491      2.07088032      1.57753110
H       2.62778600      1.26330048      2.42540859
H      -0.34532468     -1.61535795      2.42725977
