64
CCOC(=O)c1nn(-c2ccc(OC)cc2)c2c1CCN(c1ccc(N3CCCCC3=O)cc1)C2=O
C      -6.78784441     -5.27239909      0.19072749
C      -6.35801146     -4.65632015      1.50719152
O      -5.60313164     -3.46236446      1.26820984
C      -4.25606587     -3.61877509      1.10107235
O      -3.67895553     -4.70134654      1.13857414
C      -3.55122296     -2.34642597      0.86622793
N      -4.18758265     -1.16737518      0.79285698
N      -3.24523393     -0.24825188      0.42721999
C      -3.70340111      1.01805903     -0.04868572
C      -2.93744143      1.82124802     -0.89793592
C      -3.43457851      3.04905285     -1.36186106
C      -4.71167297      3.47626876     -1.00293160
O      -5.30917592      4.63884400     -1.40159900
C      -4.46835726      5.60751173     -2.01670413
C      -5.49623506      2.65759655     -0.19177799
C      -5.00217212      1.43814784      0.28081842
C      -1.97338035     -0.78576741      0.54606507
C      -2.16129346     -2.14580782      0.71768662
C      -1.02491995     -3.08830984      0.76627244
C       0.21986287     -2.35745902      1.28410398
N       0.43248434     -1.02312842      0.68130683
C       1.78342937     -0.53793764      0.55750004
C       2.84599770     -1.11460901      1.26093680
C       4.16387906     -0.64851468      1.11183318
C       4.47769161      0.41278182      0.25629881
N       5.83700338      0.87435166      0.08888659
C       6.12208062      1.72955257     -1.06976303
C       7.58701968      1.78398718     -1.46895419
C       8.41741263      2.13250955     -0.25494929
C       8.22289398      1.05663104      0.79076429
C       6.77211255      0.75761820      1.13093502
O       6.51949341      0.36517810      2.27234463
C       3.41470486      0.97690629     -0.46045705
C       2.09721013      0.51156577     -0.31170934
C      -0.67551590     -0.13766048      0.54031172
O      -0.54751142      1.07991046      0.46258814
H      -7.33734067     -4.54388814     -0.41510018
H      -7.42591652     -6.14402406      0.36055898
H      -5.91963438     -5.58374782     -0.39858781
H      -7.24148977     -4.36633068      2.08356021
H      -5.79660694     -5.37013128      2.12005286
H      -1.96340430      1.51111706     -1.26238699
H      -2.80055867      3.63525853     -2.01851386
H      -4.11431176      5.25881581     -2.99218462
H      -3.63166331      5.87548850     -1.36357616
H      -5.06301767      6.51191729     -2.18078714
H      -6.50088675      2.97074388      0.08090253
H      -5.64427683      0.83042535      0.91669815
H      -1.22963961     -3.94898131      1.40953182
H      -0.83720401     -3.46411362     -0.24676212
H       0.13707562     -2.20550646      2.36843194
H       1.07567751     -3.01066224      1.08353266
H       2.69313966     -1.91921502      1.97286753
H       4.93676267     -1.16077666      1.67947323
H       5.56541025      1.36269631     -1.94017941
H       5.77178786      2.74083866     -0.82613764
H       7.73189929      2.53075346     -2.25711168
H       7.90215147      0.81568609     -1.87588883
H       9.47627488      2.20524301     -0.52665527
H       8.11409090      3.10932840      0.14210410
H       8.67743578      0.11605091      0.45788134
H       8.73459788      1.36422052      1.71071332
H       3.56057268      1.81398352     -1.13626255
H       1.32950246      0.98954127     -0.91541631
