16
C1=CCCCC1
C       0.82239195      1.30872748      0.22896125
C      -0.47555798      1.48727075     -0.05821690
C      -1.42772754      0.35079635     -0.29277156
C      -0.86398072     -1.00418655      0.14316434
C       0.59556024     -1.15968258     -0.27530617
C       1.46565842     -0.04501625      0.31144483
H       1.45683612      2.17282931      0.40986035
H      -0.87779832      2.49508250     -0.12480352
H      -2.36126053      0.53970624      0.24927138
H      -1.67562419      0.32263461     -1.36051084
H      -1.46789013     -1.81066735     -0.28783243
H      -0.93950569     -1.09870042      1.23409602
H       0.66201447     -1.13829488     -1.37070344
H       0.97849713     -2.13457440      0.04690706
H       2.42504688     -0.02549296     -0.21786986
H       1.68333990     -0.26043187      1.36430948
