60
CCCCCCOC(=O)c1ccccc1C(=O)c1ccc(N(CC)CC)cc1O
C       8.10983908      1.83994279      0.00027417
C       6.63543838      2.19709218      0.10800723
C       5.81221078      1.01383578      0.61731986
C       4.33315316      1.34983111      0.82886252
C       3.57087630      1.79784168     -0.42320722
C       3.58273879      0.78687093     -1.56931469
O       3.14687536     -0.50670846     -1.12645224
C       1.80527032     -0.68497999     -1.08896046
O       0.94283027      0.09665256     -1.44930555
C       1.51151896     -2.01514905     -0.52577561
C       2.18711333     -3.14494367     -1.00647752
C       1.86335471     -4.41210156     -0.51612314
C       0.86839159     -4.55706357      0.45252983
C       0.19382223     -3.43590602      0.93805585
C       0.51126337     -2.16643841      0.43911533
C      -0.15571821     -0.99464524      1.02779338
O       0.49291965     -0.29189678      1.80153500
C      -1.58306739     -0.68863023      0.74641316
C      -2.27847637     -1.32234562     -0.28490336
C      -3.62580731     -1.01345951     -0.51587190
C      -4.32026072     -0.06949740      0.26018159
N      -5.66809719      0.19778374     -0.01452495
C      -6.53902877      0.74658135      1.03831808
C      -6.78506807     -0.27435867      2.14093821
C      -5.94859663      0.67589543     -1.38301997
C      -5.49689391      2.11568439     -1.59521333
C      -3.60392968      0.55334349      1.29071363
C      -2.25713624      0.25857892      1.52416207
O      -1.65580216      0.94710309      2.54719000
H       8.26145636      1.01330938     -0.70128159
H       8.68168238      2.70041649     -0.35962506
H       8.51561109      1.54479550      0.97334770
H       6.52010270      3.05016667      0.78686090
H       6.27917508      2.51429423     -0.87799303
H       6.22424332      0.67900533      1.57767934
H       5.91148012      0.16634430     -0.07035241
H       3.83580800      0.47077850      1.25818605
H       4.25339458      2.14214561      1.58384846
H       3.96164864      2.75634962     -0.78282579
H       2.53161829      1.98102002     -0.12268014
H       4.59669779      0.66661319     -1.96462567
H       2.96767942      1.14014017     -2.40525372
H       2.95890944     -3.04391358     -1.76613068
H       2.38947726     -5.28898018     -0.88789369
H       0.62772925     -5.54514685      0.83901143
H      -0.55961692     -3.55381570      1.71379991
H      -1.80226216     -2.05261578     -0.93142191
H      -4.14683348     -1.54545997     -1.30840051
H      -7.51822843      0.99175176      0.60599489
H      -6.14772540      1.68592082      1.44474441
H      -5.86908360     -0.51273819      2.69078445
H      -7.51429775      0.11477575      2.85874626
H      -7.18023006     -1.20854877      1.72763549
H      -5.48674756      0.03175919     -2.13984037
H      -7.02756810      0.61035631     -1.56873064
H      -4.41439942      2.21915973     -1.47098799
H      -5.98507227      2.79466247     -0.88801153
H      -5.75152988      2.44389488     -2.60856870
H      -4.06712416      1.30374580      1.92216003
H      -0.69572818      0.73090003      2.52663578
