29
CCOC(=O)CCCC(=O)OCC
C       4.06392681      1.69408056      1.21163274
C       4.38564000      0.28324948      0.75576383
O       3.33095580     -0.61269736      1.13679373
C       2.29088063     -0.71152739      0.26113604
O       2.19419232     -0.10127535     -0.79325799
C       1.27707504     -1.69500077      0.80037624
C       0.02627729     -1.81091301     -0.07008056
C      -0.88147586     -0.58326071      0.03289403
C      -2.13495022     -0.74323639     -0.79606619
O      -2.47367913     -1.76165510     -1.38166537
O      -2.84511765      0.42046642     -0.77212294
C      -4.05979409      0.38228032     -1.53062922
C      -4.72987133      1.73793214     -1.42008564
H       4.88777126      2.37440337      0.97820947
H       3.15555595      2.06620062      0.72737806
H       3.88152578      1.71708544      2.29105519
H       5.29661275     -0.06550797      1.25310981
H       4.57264338      0.24259197     -0.32344146
H       1.76642007     -2.67481355      0.84415186
H       0.99954372     -1.39600792      1.81716171
H      -0.53605848     -2.69754775      0.24937532
H       0.30552411     -1.98054412     -1.11752264
H      -0.35415841      0.30898227     -0.31973653
H      -1.18297535     -0.42922539      1.07492465
H      -4.72264700     -0.39179347     -1.12798855
H      -3.83374178      0.16597787     -2.58079309
H      -5.66585863      1.75781755     -1.98524817
H      -4.07073005      2.52579944     -1.79942988
H      -4.94348692      1.97813884     -0.37328967
