32
CCCCC(CC)COC(C)=O
C      -4.24839447      1.19631241     -0.84295044
C      -3.26067553      0.73965022      0.21896389
C      -1.88424341      0.44947634     -0.38321367
C      -0.89751025     -0.01020485      0.69496351
C       0.52773340     -0.32177943      0.19121026
C       0.59364221     -1.43018524     -0.88157502
C      -0.02571354     -2.74883199     -0.44004412
C       1.22670006      0.95606367     -0.31212919
O       2.61574128      0.70967389     -0.59145992
C       3.46171846      0.82109604      0.46879668
C       4.86602413      0.53688127      0.03152701
O       3.13957477      1.10472691      1.61350257
H      -5.22456811      1.39793684     -0.39092217
H      -4.38185623      0.42779211     -1.61099708
H      -3.90378690      2.11376117     -1.33065471
H      -3.65026040     -0.16049657      0.70854646
H      -3.17485991      1.51648006      0.98764149
H      -1.51060855      1.35436380     -0.87486584
H      -1.98765608     -0.32172725     -1.15423747
H      -0.83068166      0.76580774      1.46898578
H      -1.30279834     -0.89548103      1.20006000
H       1.09555851     -0.69122128      1.05609941
H       0.11151964     -1.09685781     -1.80782213
H       1.64343020     -1.62324466     -1.13483368
H       0.41196551     -3.09254048      0.50240006
H       0.15408717     -3.51895132     -1.19721220
H      -1.10831517     -2.66228079     -0.31040280
H       0.77924045      1.29503400     -1.25263325
H       1.12139268      1.78179555      0.40223795
H       4.93567631     -0.48528398     -0.34889011
H       5.16839142      1.25489882     -0.73489851
H       5.53953235      0.63733585      0.88747020
