28
O=[N+]([O-])c1ccc(Nc2ccccc2)c([N+](=O)[O-])c1
O       4.63845562      2.71635865      0.33853825
N       4.58160888      1.47931832      0.33984468
O       5.55347500      0.72734136      0.49208120
C       3.26590194      0.85673504      0.14390770
C       2.15638780      1.65675121     -0.14486639
C       0.90209426      1.06279071     -0.33373712
C       0.71986797     -0.32876829     -0.24705424
N      -0.56248574     -0.89405449     -0.39202083
C      -1.85233349     -0.40363382     -0.11729280
C      -2.10120868      0.63981290      0.78141031
C      -3.39902362      1.11816873      0.98827663
C      -4.46786661      0.56326028      0.29005955
C      -4.23940374     -0.47072168     -0.61282621
C      -2.94115763     -0.94696865     -0.81516782
C       1.86296047     -1.10783216      0.04481070
N       1.76032156     -2.56376816      0.16013891
O       0.92327364     -3.14145170     -0.55039274
O       2.52944427     -3.12826623      0.94984097
C       3.13136031     -0.53080741      0.24074759
H       2.24466523      2.73881961     -0.23269745
H       0.06074331      1.70785352     -0.58470297
H      -0.56202854     -1.86953905     -0.70178586
H      -1.29397875      1.07524420      1.36278929
H      -3.57350032      1.92095882      1.70005495
H      -5.47663932      0.93444514      0.45081032
H      -5.06912152     -0.90650525     -1.16329159
H      -2.78504943     -1.74712896     -1.53508243
H       3.99323712     -1.15841265      0.46492797
