27
CC1=NN(c2ccc(S(=O)(=O)O)cc2)C(=O)C1
C      -4.48840739     -1.33896847      0.44233950
C      -3.31505096     -0.47045993      0.14976671
N      -2.09118484     -0.78857251      0.43289082
N      -1.30591835      0.26938822      0.00910111
C       0.09656958      0.18970221      0.20194366
C       0.66060608     -0.94967622      0.80555201
C       2.04015244     -1.05767144      1.00972110
C       2.87238131     -0.01330665      0.61209465
S       4.62281622     -0.14800707      0.83436947
O       4.97919597     -1.54985301      0.78002232
O       4.99174745      0.69706727      1.94622340
O       5.25406491      0.48682913     -0.50845753
C       2.34215634      1.12534785      0.00630603
C       0.95967640      1.22276294     -0.19340195
C      -2.03874501      1.31605299     -0.57486488
O      -1.67769116      2.37945480     -1.05234603
C      -3.46604807      0.86121606     -0.50677558
H      -4.16673314     -2.26630632      0.92323544
H      -5.00432850     -1.57722185     -0.49134816
H      -5.17532814     -0.80800391      1.10636376
H       0.02554299     -1.77347777      1.12574862
H       2.44722061     -1.95199449      1.47634911
H       5.81248056     -0.20510546     -0.92223341
H       2.98940286      1.94236136     -0.30618395
H       0.58340051      2.12762189     -0.66283472
H      -3.88814564      0.74954139     -1.50710018
H      -4.05983300      1.53127900      0.11748575
