11
COC(=O)CCl
C      -1.88743935     -0.12056761      0.46252891
O      -0.53642190     -0.50065126      0.73243179
C       0.39774466      0.29795419      0.12888207
O       0.12775009      1.25573782     -0.58153291
C       1.77478237     -0.20656847      0.49115791
Cl      3.04655736      0.78093295     -0.25626000
H      -2.08315678      0.88941884      0.83600336
H      -2.09712701     -0.18681012     -0.60962026
H      -2.54623924     -0.81756401      0.98778983
H       1.90873850     -0.15953650      1.57479300
H       1.89481131     -1.23234583      0.13367440
