24
O=[N+]([O-])OC1COC2C(O[N+](=O)[O-])COC12
O       4.29271374     -0.37021294      0.05335353
N       3.84920646      0.21119754     -0.93711572
O       4.43812029      0.82148857     -1.82575872
O       2.44494705      0.21200304     -1.11288660
C       1.74958623     -0.53637406     -0.11251982
C       1.54776656      0.29222296      1.15120156
O       0.38219683      1.11444482      0.94032522
C      -0.35077102      0.58969849     -0.18126055
C      -1.74507985      0.15641054      0.22763062
O      -2.52630950      0.05175811     -0.96528892
N      -3.91394001     -0.07209570     -0.71632768
O      -4.57806174     -0.11858118     -1.74867592
O      -4.27260940     -0.12668391      0.46016808
C      -1.47036046     -1.21868178      0.82591673
O      -0.34062985     -1.77223455      0.12138971
C       0.32061622     -0.70982096     -0.58895238
H       2.22578130     -1.50447640      0.08235149
H       2.38648579      0.95032944      1.39209778
H       1.34078557     -0.34905436      2.01446743
H      -0.33409332      1.33784954     -0.98046204
H      -2.18544934      0.85594059      0.94783285
H      -1.18826607     -1.14049318      1.88119625
H      -2.30327864     -1.92027568      0.73319055
H       0.23064315     -0.90850777     -1.66187346
