32
Cc1ccc(N=Nc2cc(C)ccc2N)cc1
C       5.88595058      0.71669073      0.09242532
C       4.40746939      0.47410778      0.16692298
C       3.68440757      0.84429012      1.30625869
C       2.31180584      0.59007202      1.38608671
C       1.63641634     -0.03734010      0.33499151
N       0.26005478     -0.30167329      0.47746297
N      -0.37767495      0.04511846     -0.54166872
C      -1.75270654     -0.22517299     -0.37703716
C      -2.63202822      0.84991577     -0.18244691
C      -4.01131417      0.64233126     -0.05689753
C      -4.94142352      1.80510415      0.12068096
C      -4.51233850     -0.65749020     -0.17658345
C      -3.64704357     -1.73615825     -0.38108963
C      -2.26301615     -1.54158070     -0.43883313
N      -1.42753243     -2.63176037     -0.77027194
C       2.37003994     -0.43114088     -0.79238474
C       3.74262894     -0.17869389     -0.87691152
H       6.16278494      1.61615360      0.65237953
H       6.42688816     -0.13927051      0.50742880
H       6.20496941      0.86883817     -0.94405661
H       4.18320585      1.33292057      2.14024712
H       1.76124869      0.88393459      2.27614728
H      -2.22379091      1.85692506     -0.13663153
H      -5.24715033      2.19272854     -0.85594098
H      -5.83515082      1.50828056      0.67956839
H      -4.45765542      2.60891330      0.68554638
H      -5.58369168     -0.84013252     -0.12711706
H      -4.06354450     -2.73242779     -0.50295179
H      -1.75538029     -3.51651743     -0.39837692
H      -0.46212782     -2.43179559     -0.50876441
H       1.86902475     -0.93932969     -1.61264426
H       4.28667461     -0.49584047     -1.76381148
