23
Clc1ccc(Oc2cc(Cl)cc(Cl)c2Cl)cc1
Cl     -5.17522076     -0.88249515      0.82365900
C      -3.63131725     -0.29524681      0.34304934
C      -2.62684788     -0.12864121      1.29648025
C      -1.37252365      0.34812070      0.90836959
C      -1.12833410      0.64025137     -0.43673377
O       0.07353738      1.14063337     -0.88485744
C       1.21595551      0.50612556     -0.44209210
C       1.39664235     -0.86161123     -0.68173865
C       2.57206796     -1.48136377     -0.26849166
Cl      2.79270882     -3.16358324     -0.54938713
C       3.57308301     -0.75030745      0.36649108
C       3.40113600      0.62045669      0.58612045
Cl      4.68975910      1.46409049      1.37298706
C       2.22354751      1.26131634      0.17642945
Cl      1.98232846      2.95738591      0.43435980
C      -2.14299487      0.49520962     -1.38455989
C      -3.39611142      0.01830727     -0.99525168
H      -2.81687931     -0.35886684      2.34158490
H      -0.60514138      0.50024520      1.66199863
H       0.62743032     -1.43544638     -1.19255533
H       4.48816826     -1.24448820      0.68476102
H      -1.95842262      0.75057462     -2.42485229
H      -4.18257145     -0.10066686     -1.73577062
