29
CC(C)=CCC[C@@H](C)CC=O
C       3.01891850     -0.80279941     -1.05900113
C       2.72964561      0.46451770     -0.30337903
C       3.95131821      1.14348840      0.25901365
C       1.50325882      0.98670438     -0.10692183
C       0.18889664      0.46670596     -0.62071911
C      -0.59203118     -0.24447660      0.48844794
C      -1.90769337     -0.88524294      0.00056396
C      -2.54849851     -1.69027229      1.13648134
C      -2.90318525      0.11388562     -0.60754828
C      -3.26492476      1.24290215      0.32468642
O      -3.00809442      2.41900476      0.08674990
H       3.58296569     -0.57750013     -1.96985668
H       3.61852908     -1.48007627     -0.44119453
H       2.11914830     -1.35126487     -1.34676020
H       4.46666420      0.47827397      0.95956461
H       3.70502918      2.06544659      0.79621826
H       4.64412299      1.40437763     -0.54775849
H       1.41698672      1.90612957      0.47333956
H       0.32524005     -0.20287557     -1.47539894
H      -0.37983527      1.32437914     -0.99772922
H       0.04121541     -1.03430621      0.91525316
H      -0.79587284      0.45817393      1.30682967
H      -1.65473680     -1.60382755     -0.79099443
H      -1.87613309     -2.48884141      1.46851283
H      -2.77092420     -1.06167604      2.00459150
H      -3.48093165     -2.15934451      0.80529202
H      -3.83440218     -0.39460952     -0.88267592
H      -2.49759664      0.54490685     -1.52943621
H      -3.79707923      0.95821667      1.24762271
