20
Nc1ccc2ccccc2c1
N       3.44460405      0.25799949      0.04549252
C       2.09833816     -0.03046220     -0.21107948
C       1.71389119     -1.32136279     -0.57239891
C       0.36293443     -1.64972506     -0.71892135
C      -0.63593859     -0.69979675     -0.46258728
C      -1.99840129     -1.01009184     -0.60426629
C      -2.97917395     -0.05632395     -0.32783135
C      -2.61065564      1.21691651      0.09624591
C      -1.26046123      1.53984328      0.24232494
C      -0.26046980      0.59343009     -0.03708295
C       1.10494730      0.90170439      0.10355796
H       4.09366251     -0.31516766     -0.48422937
H       3.66914290      1.24632375     -0.01076907
H       2.46418943     -2.08785502     -0.74613305
H       0.09781399     -2.65984564     -1.02169745
H      -2.30527212     -2.00160911     -0.92915106
H      -4.02995329     -0.30972657     -0.44075317
H      -3.37308874      1.95987491      0.31494913
H      -0.99210420      2.53964488      0.57596213
H       1.39599488      1.88622931      0.46142118
