16
O=C1OCc2ccc(Br)cc21
O      -1.74415462     -2.66555287     -0.28230689
C      -1.57526353     -1.46812802     -0.17610856
O      -2.54379748     -0.50481606     -0.12773017
C      -1.98693582      0.82125371      0.00228850
C      -0.53128454      0.57757813      0.03066795
C       0.52334223      1.46692890      0.14071759
C       1.82435430      0.95036273      0.14099463
C       2.04258808     -0.43438360      0.03205860
Br      3.81279085     -1.09934596      0.03560838
C       0.97510754     -1.32255981     -0.07831770
C      -0.29692828     -0.77863960     -0.07533020
H      -2.35188362      1.26633455      0.93191295
H      -2.29168308      1.41698509     -0.86241871
H       0.35565205      2.53674279      0.22491102
H       2.66850956      1.63182593      0.22652386
H       1.11958638     -2.39458592     -0.16347125
