22
Clc1ccc(-c2cc(Cl)c(Cl)c(Cl)c2Cl)cc1
Cl     -5.21932055     -0.67468877      0.50613720
C      -3.51686546     -0.46279072      0.38291234
C      -2.93795827     -0.21552831     -0.85938518
C      -1.55456623     -0.04232749     -0.95908721
C      -0.73925320     -0.11729783      0.18183575
C       0.71457106      0.07290104      0.07785608
C       1.22790434      1.37323010      0.20772643
C       2.59988895      1.62116760      0.11884785
Cl      3.11228994      3.26444053      0.29512825
C       3.49679974      0.56793417     -0.10342774
Cl      5.20190531      0.89220331     -0.21170595
C       3.00378201     -0.74354213     -0.23661869
Cl      4.10573574     -2.06452423     -0.51335947
C       1.61720528     -0.98899249     -0.14610161
Cl      0.99392075     -2.60778266     -0.30919449
C      -1.34180843     -0.36474456      1.42592509
C      -2.72515050     -0.53801942      1.52619648
H      -3.55463168     -0.15876449     -1.75258216
H      -1.11625331      0.14631718     -1.93738930
H       0.54322773      2.20415086      0.38104187
H      -0.73578157     -0.43025728      2.32770899
H      -3.17564163     -0.73308439      2.49589656
