26
C=C(Cl)CSC(=S)N(CC)CC
C       4.61978121      0.86516742      0.74481060
C       3.37022261      0.49710494      1.05795574
Cl      2.88141792      0.48572302      2.72222658
C       2.34841848      0.01544490      0.06890092
S       1.17260733      1.34732777     -0.31887060
C      -0.05803491      0.37143853     -1.12944542
S       0.17145339      0.01170958     -2.76020278
N      -1.15929449     -0.02621466     -0.34825170
C      -1.32772959      0.31886731      1.07639373
C      -2.05050496      1.64535298      1.26055382
C      -2.27227868     -0.80506753     -0.92124251
C      -2.05275597     -2.30309675     -0.76634048
H       4.96501100      0.86742677     -0.28404023
H       5.32494296      1.18592497      1.50530304
H       1.81660868     -0.85552924      0.46859860
H       2.83655641     -0.30364298     -0.85860624
H      -1.89724573     -0.48141151      1.56341312
H      -0.36147988      0.34503061      1.58608237
H      -3.04924861      1.61485448      0.81326596
H      -1.50497295      2.47049727      0.79319443
H      -2.16240419      1.87030012      2.32569912
H      -2.41195871     -0.55957009     -1.97765479
H      -3.20141237     -0.51180789     -0.41880192
H      -2.89337126     -2.85557626     -1.19731828
H      -1.96762766     -2.58226219      0.28877665
H      -1.13670002     -2.62799157     -1.26906411
