55
CC(C)CCCCCCCOCCCNCCCN
C       7.86013710      1.05232780      0.24318196
C       6.42971717      1.56984898      0.39537446
C       6.10849350      1.82918155      1.86711882
C       5.39483535      0.64722847     -0.27875882
C       5.26957449     -0.75226949      0.33392170
C       4.32602648     -1.67260422     -0.44942313
C       2.86597907     -1.21216007     -0.42714465
C       1.95488359     -2.23643081     -1.10908584
C       0.50130452     -1.77282682     -1.22160606
C      -0.18811815     -1.59362508      0.12978021
O      -1.59262174     -1.38894652     -0.02738477
C      -1.93556806     -0.05772118     -0.40449297
C      -3.45503448      0.07715395     -0.47049312
C      -4.10466633     -0.13472175      0.90140716
N      -5.56158964      0.00474597      0.87395963
C      -6.01010892      1.39498935      0.86250692
C      -7.52889989      1.48196211      0.66320981
C      -8.00731012      1.12461712     -0.74908281
N      -7.75577688     -0.26885106     -1.10813387
H       8.02618220      0.13480475      0.81628213
H       8.57704127      1.79890970      0.60220304
H       8.09138359      0.84750144     -0.80731056
H       6.37744300      2.53538488     -0.12533385
H       6.22981224      0.92705295      2.47520688
H       6.77647958      2.59507692      2.27599354
H       5.08029709      2.18671798      1.98480493
H       5.65010381      0.55189596     -1.34186739
H       4.42027895      1.14833551     -0.23921587
H       4.92074782     -0.68133967      1.37025344
H       6.25353021     -1.23285631      0.36065413
H       4.39059773     -2.67730611     -0.01295264
H       4.67261491     -1.75678333     -1.48672920
H       2.76825631     -0.24903270     -0.93996911
H       2.55165033     -1.06456158      0.61199476
H       1.99553334     -3.18832954     -0.56575570
H       2.33064926     -2.43425122     -2.12067640
H      -0.06211881     -2.50626715     -1.81203248
H       0.45964564     -0.83862213     -1.79319036
H       0.24746879     -0.77219425      0.70895725
H      -0.07064673     -2.50820887      0.72096695
H      -1.51738365      0.16604676     -1.39102902
H      -1.52519680      0.65382398      0.32127499
H      -3.85368459     -0.66472669     -1.17360926
H      -3.69726855      1.07035864     -0.86315445
H      -3.67019886      0.54248240      1.64675146
H      -3.88451616     -1.15156974      1.24654607
H      -5.94378829     -0.46011988      0.04042796
H      -5.51741389      1.97379148      0.07389147
H      -5.75724571      1.85961274      1.82266427
H      -7.83863210      2.51402641      0.87094968
H      -8.04208168      0.85416523      1.40323065
H      -9.08464639      1.31431322     -0.81427274
H      -7.51836361      1.77482264     -1.48262709
H      -8.18826951     -0.87645638     -0.41007485
H      -8.21951779     -0.47839632     -1.99179919
