40
CCCN(CCC)C(=O)COC(=O)c1ccccc1
C      -3.86623965     -1.35014687     -3.32152153
C      -3.07111307     -1.64384974     -2.05990737
C      -2.69240465     -0.35656199     -1.32557675
N      -1.91766392     -0.62926277     -0.11163256
C      -2.66534880     -0.83875158      1.13266397
C      -3.22410200      0.45317574      1.73778771
C      -2.14869702      1.42955880      2.18753128
C      -0.53625060     -0.78306799     -0.25000181
O       0.01985461     -0.68034843     -1.34774851
C       0.27840889     -1.12422162      1.00592932
O       1.68771670     -1.02179830      0.79142559
C       2.15462479      0.25207881      0.80415573
O       1.50459564      1.24584902      1.09051097
C       3.60064026      0.28551162      0.45652747
C       4.28622203      1.50072354      0.59122639
C       5.64456144      1.58164463      0.27804763
C       6.32397315      0.45110409     -0.17382528
C       5.64792342     -0.76043164     -0.31598273
C       4.28893409     -0.84556717     -0.00316757
H      -4.79423109     -0.81961764     -3.08555956
H      -3.28562419     -0.73553417     -4.01682122
H      -4.12827823     -2.28307004     -3.83032023
H      -2.16874190     -2.20714960     -2.32480300
H      -3.66364749     -2.29080860     -1.40278362
H      -2.10094144      0.28489939     -1.98983404
H      -3.59068342      0.20975622     -1.05951806
H      -3.49490830     -1.51849882      0.90527649
H      -2.04892119     -1.35289602      1.87423461
H      -3.88452146      0.95764575      1.02444033
H      -3.84238720      0.19169572      2.60485320
H      -2.61027405      2.32252405      2.62122576
H      -1.50657387      0.98140147      2.95172489
H      -1.52324915      1.75042055      1.34916459
H      -0.01497016     -0.50399795      1.85684831
H       0.07271511     -2.16926892      1.26035217
H       3.76301410      2.38952283      0.93884025
H       6.17030368      2.52734890      0.38367934
H       7.38098920      0.51537366     -0.42055871
H       6.17758041     -1.63928103     -0.67551714
H       3.77771537     -1.79639919     -0.13136629
