40
C[C@]12CC[C@H]3C(=CCc4cc(O)ccc43)[C@@H]1CCC2=O
C      -2.48060806      1.50097466     -0.43367021
C      -2.33839744      0.36896908      0.60157538
C      -1.53535064      0.82918653      1.81937968
C      -0.04905419      1.03900907      1.46279839
C       0.60194399     -0.17323067      0.73749777
C      -0.30094432     -0.66716463     -0.39474517
C       0.12658360     -0.81938883     -1.65764233
C       1.52122376     -0.51022897     -2.10677464
C       2.45518825     -0.03511764     -1.02174925
C       3.78861796      0.24391660     -1.36834155
C       4.69594957      0.65728217     -0.40188496
O       5.97546915      0.91167008     -0.79753090
C       4.30530816      0.79555527      0.92181997
C       2.98238513      0.52326184      1.27641867
C       2.03595971      0.12231645      0.31319541
C      -1.70519409     -0.93464969      0.07052526
C      -2.78413242     -1.52758426     -0.83529249
C      -4.05648515     -1.36272687      0.00658993
C      -3.73281980     -0.16132157      0.87806141
O      -4.51374298      0.32378902      1.68611603
H      -3.14512723      1.22908519     -1.26099481
H      -1.52105270      1.79681224     -0.86766648
H      -2.91993645      2.39023931      0.03409693
H      -1.95034103      1.75819543      2.22889144
H      -1.61074254      0.08547974      2.62358987
H       0.05074768      1.93791388      0.84023263
H       0.48933215      1.25891374      2.39253879
H       0.66729913     -1.00059104      1.46005442
H      -0.54728251     -1.17048507     -2.43382031
H       1.94184434     -1.41731870     -2.55786997
H       1.46733420      0.26035531     -2.88542776
H       4.12425392      0.13245791     -2.39659932
H       6.48779265      1.19194590     -0.02171349
H       5.00734490      1.10715703      1.68823007
H       2.69528237      0.62140021      2.32101017
H      -1.60618980     -1.65244164      0.90347264
H      -2.87560793     -0.98319403     -1.78166785
H      -2.59644102     -2.57937427     -1.07421642
H      -4.21911327     -2.23237544      0.64969956
H      -4.93129706     -1.17066272     -0.61818652
