24
CCc1cccc(CC)c1
C      -3.14351457      0.53094384     -0.63821755
C      -2.51100930      0.29738564      0.72518329
C      -1.13630035     -0.30950076      0.60847677
C      -0.97305437     -1.69981555      0.59131599
C       0.29780588     -2.25955391      0.46259092
C       1.41732077     -1.43597084      0.34700514
C       1.27664349     -0.04316464      0.36186072
C       2.48283074      0.84859552      0.21478233
C       2.76442838      1.18299879     -1.24204637
C      -0.00567356      0.51098178      0.48535729
H      -4.13919509      0.97078708     -0.52307193
H      -2.53913878      1.21365779     -1.24511437
H      -3.24909687     -0.40747013     -1.19311996
H      -2.45002585      1.24553298      1.27322930
H      -3.15451885     -0.35796963      1.32472884
H      -1.83674160     -2.35523103      0.67523757
H       0.41565374     -3.33978503      0.44902956
H       2.40104379     -1.88747328      0.24210887
H       3.35916524      0.36101652      0.65902872
H       2.32940081      1.77309744      0.78470505
H       2.95699673      0.27747547     -1.82739097
H       3.64411657      1.82983093     -1.31857757
H       1.91812491      1.70558326     -1.70070258
H      -0.12526185      1.59279585      0.48360094
