12
Brc1ccc(I)cc1
Br     -3.27702173     -0.18406831      0.29431280
C      -1.39728240     -0.07848467      0.12549180
C      -0.78469338      1.16599573     -0.01922970
C       0.60452544      1.24460167     -0.14403934
C       1.36896515      0.07689402     -0.12294774
I       3.43584692      0.19298993     -0.30857819
C       0.75496037     -1.16824010      0.02194295
C      -0.63432976     -1.24570163      0.14667472
H      -1.37695423      2.07723933     -0.03605648
H       1.07349045      2.21890450     -0.25643118
H       1.34171889     -2.08324363      0.03951671
H      -1.10922573     -2.21688683      0.25934365
