57
Cc1cc(C)c(C(=O)P(=O)(C(=O)c2c(C)cc(C)cc2C)c2ccccc2)c(C)c1
C      -6.60465864      0.54915259     -0.27405695
C      -5.17860121      0.08168741     -0.27137750
C      -4.55438174     -0.26873732      0.93146053
C      -3.23754105     -0.75267445      0.95353834
C      -2.64125160     -1.15692513      2.27389544
C      -2.53408268     -0.84236431     -0.26201319
C      -1.11961666     -1.27132538     -0.26318017
O      -0.83746193     -2.33691838     -0.81147922
P       0.20973170     -0.33875335      0.51585184
O       0.63890134     -0.91108615      1.85367562
C       1.50848609     -0.34000423     -0.73371146
O       1.23048662     -0.02116643     -1.88954387
C       2.91276554     -0.65357600     -0.40479605
C       3.29746819     -1.98937920     -0.19139031
C       2.33082247     -3.13384931     -0.31827383
C       4.63099938     -2.25471670      0.15446161
C       5.57244380     -1.22275560      0.25472509
C       6.98789804     -1.52723643      0.64954400
C       5.16831177      0.09857741      0.02953326
C       3.84133716      0.40100041     -0.30786567
C       3.44906948      1.83377743     -0.54525605
C      -0.32246433      1.36277249      0.57734010
C      -0.68033827      2.08998893     -0.56748279
C      -1.09442350      3.41953177     -0.46866097
C      -1.15390178      4.04310334      0.77557827
C      -0.79425362      3.34041117      1.92231363
C      -0.37850673      2.01218638      1.82259039
C      -3.15260673     -0.52215299     -1.48774956
C      -2.46335677     -0.69767873     -2.81453668
C      -4.48193871     -0.07477843     -1.47436242
H      -6.81372433      1.16191722      0.60919786
H      -7.28105820     -0.31108635     -0.28035876
H      -6.81348181      1.16714365     -1.15324754
H      -5.11054612     -0.17627035      1.86294841
H      -2.02560703     -0.35027040      2.67844485
H      -3.42496461     -1.38117976      3.00588256
H      -2.04054731     -2.06646968      2.17335580
H       1.79617666     -3.07991592     -1.27133230
H       1.61624171     -3.12426059      0.50900285
H       2.85009570     -4.09765413     -0.30048534
H       4.94468345     -3.28086846      0.34111042
H       7.29943457     -2.50089733      0.25869719
H       7.67806785     -0.78036592      0.24350044
H       7.07883053     -1.53572294      1.73974856
H       5.89899613      0.90110135      0.11896680
H       3.05756890      1.96216031     -1.55964340
H       4.30741012      2.50711387     -0.44071455
H       2.69544912      2.14796185      0.18395596
H      -0.63580499      1.63259553     -1.55396703
H      -1.36822015      3.96955737     -1.36624738
H      -1.47726195      5.07828641      0.85064300
H      -0.83527451      3.82587980      2.89446341
H      -0.09555802      1.47533455      2.72839482
H      -2.92602138     -0.06681737     -3.58316754
H      -2.53480358     -1.74221794     -3.13720023
H      -1.40942492     -0.40675793     -2.76584580
H      -4.97999147      0.15559234     -2.41487445
