26
O=S(=O)(Nc1cccnc1Cl)c1ccccc1
O      -1.35381494      3.08620354     -1.00613539
S      -0.81509856      1.77129386     -1.28054076
O      -0.99934993      1.13752089     -2.56848064
N       0.84148466      1.86107600     -0.94158031
C       1.59041831      0.63817356     -0.88497331
C       1.78506287     -0.12307716     -2.03429247
C       2.48732223     -1.32462892     -1.95129571
C       2.97387264     -1.72557133     -0.71556701
N       2.80984832     -1.01711578      0.42154041
C       2.12459873      0.14239920      0.30800464
Cl      1.96242602      0.99867917      1.79293968
C      -1.42694971      0.66801939     -0.02845348
C      -1.61121771     -0.68614492     -0.32424137
C      -2.09082262     -1.54397286      0.66490172
C      -2.39571680     -1.04688171      1.93323399
C      -2.23083656      0.31008002      2.21650557
C      -1.75137357      1.17525435      1.23359768
H       1.01880505      2.52896977     -0.18830858
H       1.40251175      0.21141310     -2.99572155
H       2.65228636     -1.93361003     -2.83446502
H       3.52713807     -2.65519165     -0.60728623
H      -1.38420233     -1.07880937     -1.31279754
H      -2.23139562     -2.60036267      0.44839963
H      -2.77019891     -1.71864662      2.70243274
H      -2.47985781      0.69205392      3.20387766
H      -1.63493996      2.23287624      1.45897217
