30
Cn1nc(S(N)(=O)=O)sc1=NS(=O)(=O)c1ccc(Br)cc1
C       1.19617880      2.57361687      0.23970489
N       1.72105406      1.22345864      0.14280645
N       3.09581385      1.12828254      0.23124957
C       3.44151496     -0.12769817      0.22104142
S       5.15008586     -0.60365020      0.31635519
N       6.10692765      0.79170565      0.38828436
O       5.49371344     -1.23652707     -0.93863348
O       5.34368717     -1.26354262      1.58939257
S       2.14581582     -1.30417328      0.11647280
C       0.99047421      0.04877555      0.08554302
N      -0.22672769     -0.33184588      0.01788664
S      -1.44569913      0.70258627     -0.04526930
O      -1.52361094      1.43678652      1.20247327
O      -1.41268255      1.41471259     -1.30756294
C      -2.87241022     -0.36765797     -0.10354607
C      -3.30728518     -0.86497151     -1.33707959
C      -4.43450133     -1.68741783     -1.38777838
C      -5.11817174     -1.99941993     -0.21128616
Br     -6.64466146     -3.11259108     -0.28360260
C      -4.68846684     -1.49606522      1.01791767
C      -3.56183680     -0.67294596      1.07487719
H       0.65679256      2.71309974      1.17969865
H       0.54800804      2.80906743     -0.60641124
H       2.00702531      3.31177035      0.22497683
H       6.72979385      0.81660506     -0.42073227
H       6.61477432      0.80843951      1.27432291
H      -2.77743280     -0.61820881     -2.25476138
H      -4.77247112     -2.07669785     -2.34515601
H      -5.22419818     -1.73679373      1.93304720
H      -3.23150392     -0.27869963      2.03342848
