54
CC(=O)OC1CCC2(C)C(=CCC3C4CCC(=O)C4(C)CCC32)C1
C       7.24031463      0.17435551      0.93742656
C       5.90779313     -0.40914786      0.57985724
O       5.66424513     -1.60653865      0.54988769
O       5.02510324      0.58842521      0.30182273
C       3.69497479      0.17077200     -0.06554098
C       3.06224808      1.32555008     -0.84245404
C       1.60834829      1.02743930     -1.20537332
C       0.70229588      0.67647685      0.01141191
C       0.49273679      1.94079566      0.87869388
C       1.40920337     -0.37908681      0.87387943
C       0.78992437     -1.47983343      1.33740795
C      -0.65183277     -1.80752660      1.11176773
C      -1.47122096     -0.62518917      0.57432806
C      -2.80611034     -1.10184835     -0.00326525
C      -3.76469752     -1.90085033      0.87282780
C      -5.03804600     -1.95729326      0.01575797
C      -4.92457220     -0.71192492     -0.84776891
O      -5.76447360     -0.37253384     -1.67055674
C      -3.65933670      0.06581143     -0.53291921
C      -4.04675848      1.13746639      0.50215844
C      -2.91901787      0.67335319     -1.71970069
C      -1.52803871      1.17648370     -1.29473944
C      -0.67256148      0.12076673     -0.53758975
C       2.87257881     -0.14379199      1.18851990
H       7.62632865      0.75884128      0.09851996
H       7.94466110     -0.63467669      1.15121427
H       7.14428790      0.79786030      1.82981844
H       3.74566395     -0.70682951     -0.72426327
H       3.64067380      1.50877299     -1.75668803
H       3.13327587      2.25539959     -0.26456820
H       1.20569066      1.89453477     -1.74245939
H       1.60434034      0.19289382     -1.91979493
H       1.41955695      2.27795940      1.35478483
H      -0.22907035      1.76686396      1.68329746
H       0.13418947      2.78579628      0.28213018
H       1.34848094     -2.20742204      1.92441889
H      -1.08894826     -2.14435826      2.05948937
H      -0.69975847     -2.65781060      0.42013622
H      -1.66138761      0.05715505      1.41071287
H      -2.56127768     -1.76494694     -0.85167699
H      -3.95444075     -1.39781534      1.82721944
H      -3.39446075     -2.90663957      1.09435637
H      -5.03719309     -2.83798793     -0.63286077
H      -5.93932507     -1.92729687      0.63164499
H      -4.65670851      1.91691299      0.02957729
H      -4.64977957      0.72885606      1.32029940
H      -3.17930651      1.62904968      0.95029362
H      -2.80835717     -0.06822020     -2.52156206
H      -3.49418740      1.50070514     -2.15299178
H      -0.99693790      1.50574547     -2.19492192
H      -1.66648744      2.06883181     -0.67733927
H      -0.42791116     -0.64472029     -1.29235606
H       2.96474737      0.68035166      1.90726811
H       3.31054082     -1.00993687      1.69989985
