10
C=C(Cl)C(N)=O
C      -1.76481595     -0.45882418     -0.20197265
C      -0.63766866      0.26089738     -0.13997204
Cl     -0.67422102      1.96482857     -0.41319108
C       0.66569451     -0.40806292      0.16743282
N       1.75934989      0.40245158      0.20997422
O       0.76980506     -1.61229743      0.37268297
H      -1.75445305     -1.53169578     -0.03190690
H      -2.72168976      0.00071041     -0.42269728
H       1.70184765      1.39820137      0.04469629
H       2.65615134     -0.01620900      0.41495364
