33
CC(=O)Nc1cc(NS(=O)(=O)C(F)(F)F)c(C)cc1C
C      -3.24455897      2.97700572     -1.30262287
C      -2.00428641      2.35752038     -0.70710705
O      -1.03098733      3.04912010     -0.43136727
N      -2.14711013      0.99572324     -0.50437319
C      -1.19188026      0.08828586      0.01485412
C       0.10899451      0.47989843      0.34969400
C       1.03276229     -0.43731187      0.86124525
N       2.35998269      0.01954292      1.12494831
S       3.45728338      0.02137795     -0.18424047
O       4.74975070     -0.12882525      0.46848741
O       3.03404743     -0.98806091     -1.13915800
C       3.31907086      1.73467980     -0.90579588
F       3.34873757      2.69800721      0.05904540
F       4.34386016      2.00752884     -1.76397617
F       2.16529332      1.90918886     -1.60813668
C       0.67983607     -1.77826696      1.04469944
C       1.65165038     -2.79851660      1.56665158
C      -0.62037499     -2.17499161      0.70422965
C      -1.56110172     -1.26126316      0.19153198
C      -2.93494687     -1.77494220     -0.15111867
H      -2.97828985      3.91078235     -1.80627257
H      -3.96337631      3.18600694     -0.50607256
H      -3.69738704      2.31062565     -2.04249741
H      -3.04912751      0.60718273     -0.74289776
H       0.42682328      1.50954014      0.23168453
H       2.81716341     -0.37322204      1.94869293
H       2.47491449     -2.94048059      0.86026399
H       1.17143586     -3.77149219      1.71613730
H       2.05249140     -2.48358865      2.53541012
H      -0.90576286     -3.21864608      0.83270473
H      -3.13643471     -1.63681040     -1.21829076
H      -3.69432544     -1.25147443      0.43872139
H      -3.03414741     -2.84412420      0.06492516
