23
COc1cc(CN)ccc1O.[Cl]
C      -2.50943742      1.68032328      0.73060346
O      -2.50229129      0.30664085      0.35831898
C      -1.28995898     -0.21817491     -0.01068505
C      -0.08190036      0.47450714     -0.09452282
C       1.09948759     -0.18731308     -0.48382297
C       2.39899493      0.57245680     -0.58094415
N       2.76789983      1.16553063      0.69945639
C       1.04894579     -1.55512224     -0.79437539
C      -0.15572049     -2.25272802     -0.71616871
C      -1.30681139     -1.58058468     -0.32752107
O      -2.47653775     -2.28858871     -0.25808003
Cl      0.00000000      0.00000000      0.00000000
H      -3.53290841      1.94307300      1.01507131
H      -1.86672967      1.85823903      1.59919421
H      -2.22439391      2.31859208     -0.11221854
H      -0.01601296      1.53222406      0.14309188
H       2.29767966      1.35826747     -1.33791060
H       3.20640860     -0.09057880     -0.91204076
H       3.69671553      1.57478639      0.62004274
H       2.84206689      0.42191022      1.39311468
H       1.94693101     -2.08691950     -1.09998454
H      -0.19880160     -3.31078915     -0.95565816
H      -3.14362558     -1.63575187      0.03068730
