34
CCOP(=S)(OCC)Oc1cnc2ccccc2n1
C      -4.50539916      2.17202692     -1.31557431
C      -3.53262088      1.87149131     -0.19371449
O      -2.95681498      0.59669837     -0.42644756
P      -1.59857173      0.19768217      0.37505346
S      -1.78910020      0.19639098      2.31070856
O      -1.25343359     -1.20414523     -0.36030258
C      -2.09233327     -2.31906045     -0.11734886
C      -1.77173472     -3.39384356     -1.13574843
O      -0.55511528      1.22611246     -0.30235452
C       0.79273497      1.09371143     -0.12861005
C       1.63144999      1.99288182     -0.75766708
N       2.97764295      1.93627289     -0.63776247
C       3.46348712      0.94678203      0.13809992
C       4.83586805      0.82086466      0.31534399
C       5.37561898     -0.18966227      1.11261321
C       4.52848817     -1.09079603      1.74478690
C       3.14805890     -0.97540098      1.57418681
C       2.59838181      0.02507054      0.78253386
N       1.25966456      0.09968101      0.64434926
H      -3.99103192      2.16938399     -2.28229419
H      -4.97954866      3.14672268     -1.17059211
H      -5.28433404      1.40409298     -1.36716796
H      -4.06175054      1.85847023      0.76370287
H      -2.75410361      2.63991302     -0.15927013
H      -1.90755132     -2.69728972      0.89245917
H      -3.14366243     -2.02672553     -0.20136400
H      -1.93500004     -3.02192829     -2.15267742
H      -2.39500258     -4.27862828     -0.97905697
H      -0.71868442     -3.68679031     -1.06905838
H       1.24479647      2.79046505     -1.38104746
H       5.49780689      1.52778442     -0.17898432
H       6.45272001     -0.26796541      1.23769579
H       4.93523947     -1.88137766      2.37052079
H       2.48383504     -1.67888523      2.07111205
