35
CN(C)C(=O)Nc1ccc(Oc2ccc(Cl)cc2)cc1
C       5.84186698     -1.11091581      0.13775452
N       4.70627916     -0.33034320      0.60112348
C       5.04565610      0.90869406      1.28950567
C       3.49358739     -0.53170187     -0.06821196
O       3.41034205     -1.28147727     -1.03746171
N       2.43350086      0.15124891      0.48609139
C       1.13385142      0.28476104     -0.04240327
C       0.13993783      0.78427807      0.81002003
C      -1.16998406      0.95669965      0.35333477
C      -1.49369842      0.62148660     -0.96135173
O      -2.75532993      0.79868934     -1.47952840
C      -3.80768948      0.27284996     -0.76461194
C      -4.94364760      1.07369595     -0.63358803
C      -6.06056144      0.59120049      0.05141890
C      -6.03977536     -0.69607292      0.58787486
Cl     -7.41574773     -1.29073591      1.43259635
C      -4.91512378     -1.50755672      0.43915979
C      -3.79749240     -1.02560744     -0.24601171
C      -0.50586134      0.15835325     -1.82681253
C       0.80357966     -0.01412061     -1.36662271
H       5.52716132     -2.10930704     -0.18051256
H       6.56630150     -1.21644628      0.95055075
H       6.30548557     -0.59552897     -0.70891619
H       5.67373119      0.67275774      2.15344517
H       4.17206485      1.46576740      1.63052383
H       5.60291732      1.54717732      0.59653959
H       2.53697949      0.35896499      1.46656258
H       0.36969781      1.04687452      1.83911221
H      -1.92528976      1.35614247      1.02406752
H      -4.95675673      2.07266663     -1.06139538
H      -6.94074236      1.21924364      0.15849868
H      -4.90406806     -2.51503108      0.84627850
H      -2.93105131     -1.66863604     -0.37697890
H      -0.74954018     -0.07428064     -2.85987795
H       1.54941944     -0.37379020     -2.06956787
