43
CN(C)CCCN1c2ccccc2Sc2ccc(C(F)(F)F)cc21
C       4.59342710      0.15040137      1.51565649
N       3.42062936     -0.28778238      0.75220939
C       3.85544620     -1.08044888     -0.40178233
C       2.62074041      0.88006930      0.34603932
C       1.25875581      0.53285156     -0.26742073
C       0.39231983     -0.31677426      0.67445964
N      -0.96278931     -0.56279099      0.10317481
C      -0.97200920     -1.48898355     -0.97876289
C      -0.37349016     -2.75709221     -0.83375006
C      -0.37571076     -3.69397201     -1.87065653
C      -0.98916101     -3.38856937     -3.07781288
C      -1.60786730     -2.15113912     -3.24017562
C      -1.61332622     -1.20642735     -2.19966952
S      -2.41220281      0.35106381     -2.53014919
C      -2.58176434      1.02485571     -0.89084786
C      -3.46345912      2.10710414     -0.73736585
C      -3.65113997      2.70668969      0.50732829
C      -2.95962583      2.23170993      1.62398861
C      -3.18249666      2.83364148      2.98848368
F      -4.10918252      2.14985840      3.71352220
F      -2.05207159      2.85519336      3.74917461
F      -3.62006573      4.12316190      2.94131775
C      -2.08059085      1.14606304      1.46378078
C      -1.85344944      0.54032572      0.21066509
H       4.28597235      0.69706899      2.41413279
H       5.17343525     -0.71298608      1.86055094
H       5.25304842      0.79722170      0.92575604
H       4.43656233     -0.48647358     -1.11628284
H       3.00083231     -1.51884354     -0.92636501
H       4.47361260     -1.92500392     -0.07598474
H       2.42725811      1.50434414      1.22859682
H       3.18218603      1.50556625     -0.36039207
H       0.74251063      1.47345922     -0.49650596
H       1.39406383      0.02551126     -1.22919874
H       0.89568057     -1.26275664      0.89911677
H       0.32835112      0.18154636      1.64828494
H       0.07806972     -3.04798504      0.11098713
H       0.09226094     -4.66416100     -1.72561322
H      -0.99678462     -4.11281641     -3.88783552
H      -2.09171309     -1.92566773     -4.18814618
H      -4.01689484      2.48802576     -1.59387625
H      -4.34724446      3.53896340      0.60015789
H      -1.59212307      0.74597757      2.35121002
