25
O=c1[nH]c2ccccc2c(=O)n1CCO
O      -1.74639390      1.38233514      2.12115585
C      -0.89132463      0.86404163      1.40493507
N       0.27031725      1.53912517      1.15949491
C       1.28169461      1.06807020      0.32744637
C       2.44601238      1.81438830      0.14849545
C       3.44788796      1.33612854     -0.69968008
C       3.28367691      0.12054723     -1.36742038
C       2.11579134     -0.62206763     -1.18853568
C       1.11730707     -0.14237857     -0.33572612
C      -0.13551210     -0.89058119     -0.12750213
O      -0.36393606     -1.89627276     -0.79767110
N      -1.02863054     -0.37964059      0.80973002
C      -2.26457360     -1.12463192      1.05757858
C      -3.31611561     -0.87272839     -0.02907244
O      -3.09576343     -1.66745932     -1.19315625
H       0.35777071      2.43557945      1.62105175
H       2.58777401      2.76374931      0.65774237
H       4.35890454      1.91325906     -0.84334765
H       4.06476628     -0.24713000     -2.02933688
H       1.98695440     -1.56684102     -1.71232005
H      -2.67242413     -0.82832260      2.03003811
H      -2.02189962     -2.19273974      1.10582133
H      -4.30638747     -1.14295381      0.35037301
H      -3.34165535      0.17944810     -0.32974235
H      -2.13424102     -1.84292458     -1.27584706
