43
CCOC(=O)[C@@H](C)Oc1ccc(Oc2cnc3cc(Cl)ccc3n2)cc1
C      -5.43530551      2.96745845     -1.32216077
C      -6.11875414      1.68775408     -0.87853749
O      -5.24442964      0.92769259     -0.03083900
C      -4.38095456      0.08084184     -0.67217224
O      -4.31059769     -0.04463751     -1.88765864
C      -3.51231470     -0.64748405      0.35932451
C      -4.39142110     -1.56782724      1.19959259
O      -2.54375534     -1.43576895     -0.33627924
C      -1.29479743     -1.56462926      0.20170295
C      -0.32340899     -2.02464330     -0.69312975
C       0.99646462     -2.21119473     -0.27873491
C       1.34763407     -1.92749995      1.03979715
O       2.62045193     -2.14940829      1.50336908
C       3.62101508     -1.33177672      0.99569497
C       4.92835670     -1.70383192      1.25048526
N       5.98857014     -0.97550355      0.82688205
C       5.70198054      0.14771060      0.14087552
C       6.73800956      0.94371971     -0.32654226
C       6.47361095      2.11066405     -1.03833467
Cl      7.77450325      3.08078818     -1.60725054
C       5.16315407      2.49577393     -1.29147904
C       4.11495760      1.70132160     -0.82479771
C       4.35859005      0.53413126     -0.11309474
N       3.31873023     -0.20165605      0.31800780
C       0.38080774     -1.50252714      1.94913317
C      -0.94045677     -1.31643229      1.52898384
H      -5.10502528      3.54754384     -0.45419793
H      -6.11387242      3.58227708     -1.92015459
H      -4.54322564      2.75078239     -1.91820506
H      -6.45886847      1.09504062     -1.73540219
H      -7.00594512      1.93158064     -0.28496247
H      -3.03631525      0.13639603      0.96064630
H      -4.92170873     -2.28492532      0.56222327
H      -3.79495199     -2.15485987      1.90463756
H      -5.13847907     -1.00379154      1.76675637
H      -0.59828892     -2.23473291     -1.72431663
H       1.73937631     -2.56889120     -0.98492186
H       5.16247447     -2.60458468      1.80599457
H       7.76329911      0.64251582     -0.12865333
H       4.94742555      3.40485734     -1.84687033
H       3.08606719      1.99589332     -1.01978153
H       0.65331578     -1.31369652      2.98360257
H      -1.66591817     -0.99444038      2.26766132
