26
NCCCC[C@H](N)C(=O)O.[Cl-].[H+]
N       3.39721215     -0.55577016      0.65972382
C       2.77919665      0.57817951      0.00362288
C       1.40852673      0.09277317     -0.48653234
C       0.60324531     -0.36002462      0.68702980
C      -0.75677936     -0.85448978      0.29209317
C      -1.57087044      0.21240695     -0.39932721
N      -1.74315903      1.34307903      0.48913472
C      -2.89447178     -0.38532505     -0.72218754
O      -2.97665981     -1.37976563     -1.47930743
O      -4.03063703      0.15612201     -0.18740705
Cl      0.00000000      0.00000000      0.00000000
H       0.00000000      0.00000000      0.00000000
H       3.54345760     -0.38464394      1.67415787
H       4.26300629     -0.81575742      0.16554463
H       3.38294206      0.99235092     -0.81376756
H       2.57708660      1.34682342      0.76208377
H       0.87278852      0.92050262     -1.00176209
H       1.54214168     -0.71819379     -1.21165006
H       0.44023996      0.51691681      1.37158734
H       1.14337227     -1.12387947      1.28046968
H      -0.62719973     -1.67562802     -0.46509580
H      -1.35002911     -1.20822324      1.14809745
H      -1.09518834      0.53680095     -1.33210852
H      -2.37387393      2.05453759      0.10353080
H      -2.05941106      1.02152928      1.43139114
H      -4.47493621     -0.31032116      0.61011696
