29
COP(=O)(OC)SCn1c(=O)oc2cc(Cl)cnc21
C       3.58586957     -0.57205405     -1.33022793
O       3.36187456     -0.66543923      0.06224942
P       2.52917751      0.50995297      0.79801575
O       2.33171899      0.20714090      2.25564752
O       3.48267194      1.79545570      0.56522046
C       4.65334170      1.86946732      1.35474960
S       0.69599946      0.80202995     -0.13104956
C      -0.17647768     -0.67200848      0.43589007
N      -1.37090298     -0.88706696     -0.32087618
C      -1.48033099     -1.57828349     -1.50017250
O      -0.57334585     -2.15747670     -2.08231013
O      -2.79841408     -1.55113465     -1.98253036
C      -3.43917134     -0.79859120     -1.01860837
C      -4.77284140     -0.45645034     -1.00179692
C      -5.20379878      0.31227975      0.07801794
Cl     -6.84749329      0.79463809      0.19549451
C      -4.28159781      0.68442978      1.06569004
N      -2.96407720      0.34521519      1.05309641
C      -2.60272762     -0.38556021     -0.00609361
H       2.68055076     -0.85663424     -1.87221039
H       4.38654880     -1.26513545     -1.60082249
H       3.88818164      0.43908240     -1.61464444
H       4.38793233      2.03815000      2.40169176
H       5.25875706      2.70931839      1.00478619
H       5.23782699      0.95020061      1.26132749
H       0.47985268     -1.53744412      0.29850711
H      -0.41278378     -0.58721080      1.50130854
H      -5.44673770     -0.77049094     -1.78967483
H      -4.58960348      1.28361982      1.91932489
