48
CCOCCOC(=O)C(C)Oc1ccc(Oc2ncc(C(F)(F)F)cc2Cl)cc1
C       8.37301907      0.21189325     -2.59020303
C       7.09802158     -0.08317273     -1.82475117
O       6.99887408      0.84600126     -0.74608566
C       5.83285071      0.64281657      0.05137651
C       4.60517212      1.32496360     -0.55253385
O       3.46169827      1.19921778      0.30792965
C       2.80873563     -0.00148017      0.23762150
O       3.15044610     -0.92491517     -0.48980632
C       1.60090402      0.00671710      1.18073204
C       2.08787182      0.11936261      2.62181556
O       0.89506414     -1.22558988      1.02004351
C      -0.46630021     -1.22166585      1.13304579
C      -1.09160879     -2.36763646      0.63147025
C      -2.47980784     -2.50510236      0.68840359
C      -3.24871315     -1.48569751      1.24266439
O      -4.60434093     -1.67805462      1.33589555
C      -5.42325637     -0.79328073      0.64105997
N      -4.88571859      0.00092195     -0.32167805
C      -5.72682733      0.82043923     -0.99203329
C      -7.09124229      0.89598727     -0.75014482
C      -7.95168266      1.81777363     -1.55775580
F      -9.02819812      2.27926932     -0.86401126
F      -7.28806995      2.92334858     -1.99351691
F      -8.45126801      1.21531141     -2.66993823
C      -7.62354745      0.05622073      0.23619563
C      -6.78270143     -0.80198316      0.94381904
Cl     -7.45837888     -1.82493967      2.15323045
C      -2.63357195     -0.35357052      1.77846384
C      -1.24206596     -0.21933630      1.71809064
H       8.49360691     -0.47932646     -3.42900778
H       8.36321809      1.23693151     -2.97538704
H       9.24539635      0.12647037     -1.93362179
H       6.23655844      0.01622246     -2.49233164
H       7.13191303     -1.10457360     -1.43017052
H       6.02992344      1.08485616      1.03519575
H       5.66554278     -0.42516471      0.23243052
H       4.37469208      0.95288393     -1.55741353
H       4.80630739      2.39571263     -0.67317831
H       0.98755575      0.86443349      0.87937888
H       2.78435829     -0.69272689      2.85987554
H       2.60414297      1.06803986      2.79729974
H       1.25896997      0.04226579      3.33171303
H      -0.49056076     -3.15927503      0.18980352
H      -2.95463183     -3.40068978      0.29874760
H      -5.24885020      1.43281981     -1.75519778
H      -8.69108264      0.07185149      0.44899619
H      -3.23131247      0.42485985      2.24334326
H      -0.80110525      0.67058995      2.15272848
