25
Nc1c2ccccc2nc2c(F)cccc12
N      -0.05199357     -2.54046019      0.14132939
C      -0.02467289     -1.12399567     -0.00802648
C       1.22254437     -0.44066534     -0.06031730
C       2.49407105     -1.07124694     -0.01641703
C       3.67670030     -0.33658249     -0.10496673
C       3.61409783      1.04124522     -0.23641942
C       2.36989650      1.67183118     -0.26564895
C       1.18054730      0.96077512     -0.17164569
N       0.03904844      1.65740956     -0.18333107
C      -1.13841513      1.02461329     -0.02993503
C      -2.31679282      1.77143133      0.02375662
F      -2.26494823      3.10945965     -0.09655509
C      -3.57158311      1.19391561      0.20670333
C      -3.67263698     -0.17896128      0.34878553
C      -2.51518546     -0.95511400      0.29200102
C      -1.23247707     -0.37615458      0.08930073
H       0.75002039     -2.99844679     -0.27854075
H      -0.90755467     -2.96101526     -0.20496319
H       2.57800917     -2.14716080      0.10482915
H       4.63873687     -0.84078292     -0.06672011
H       4.52416558      1.63074904     -0.30648545
H       2.32485368      2.75533634     -0.35612957
H      -4.45124932      1.82834728      0.24538598
H      -4.64096020     -0.64648720      0.50705612
H      -2.62422203     -2.02804017      0.42695400
