18
Cn1c(=O)cnc2cncnc21
C      -1.70848107     -1.62366462      0.02389329
N      -1.07857664     -0.31932999      0.02189131
C      -1.84023836      0.83323403      0.05064354
O      -3.06213829      0.89948519      0.07957232
C      -1.07626131      2.13596701      0.04552222
N       0.21704422      2.22507211      0.01643844
C       0.92874117      1.01141290     -0.01174647
C       2.30878272      0.99823145     -0.04382514
N       3.05804928     -0.12479421     -0.07200535
C       2.37385499     -1.27658264     -0.06727464
N       1.03900616     -1.40180100     -0.03757735
C       0.33509639     -0.24901353     -0.01016028
H      -1.42805028     -2.16556832     -0.88494674
H      -1.38653778     -2.18286350      0.90816712
H      -2.79856883     -1.53683447      0.04996747
H      -1.70408946      3.04060545      0.06878478
H       2.86814288      1.92946016     -0.04779317
H       2.95422421     -2.19301601     -0.08955136
