41
CC(C)=C1OC(=O)N(c2cc(OC3CCCC3)c(Cl)cc2F)C1=O
C       6.05863060      1.04784971     -0.46465205
C       4.62767725      1.00872427      0.01682961
C       4.35278271      2.00263745      1.11486351
C       3.73033291      0.15425783     -0.51463918
O       4.08338317     -0.73521146     -1.51942082
C       2.90232006     -1.38674249     -1.80902617
O       2.83612165     -2.13701618     -2.77476384
N       1.88300905     -1.01284644     -0.97171420
C       0.56144829     -1.53582667     -1.00541631
C      -0.53904474     -0.73965435     -0.64754630
C      -1.84398149     -1.25258720     -0.67656232
O      -2.91852763     -0.45702562     -0.37741462
C      -2.85613521      0.13988782      0.92625532
C      -4.18260085     -0.11303641      1.63747099
C      -5.15081305      0.88613627      1.01009218
C      -4.29102609      2.03399083      0.48311264
C      -2.84290168      1.65873912      0.79174922
C      -2.06938098     -2.56597560     -1.09650880
Cl     -3.66013108     -3.22846975     -1.17252259
C      -0.99217047     -3.37797026     -1.43306819
C       0.30332532     -2.86559485     -1.37513419
F       1.30887742     -3.72484261     -1.59094485
C       2.30016208      0.00790089     -0.17177255
O       1.68167850      0.65323084      0.65405619
H       6.26400012      0.33356202     -1.26731058
H       6.29981458      2.04582409     -0.84529188
H       6.74061307      0.81778022      0.36068393
H       5.08205863      1.87732675      1.92297576
H       4.44508186      3.02235603      0.72681592
H       3.36760509      1.90989463      1.57036596
H      -0.40471081      0.30577388     -0.38329000
H      -2.01782306     -0.23355821      1.52726678
H      -4.08128683      0.09818082      2.70841726
H      -4.54159611     -1.13953341      1.51655924
H      -5.69615375      0.42040953      0.18115787
H      -5.89293374      1.23186274      1.73644232
H      -4.43759301      2.14208041     -0.59781048
H      -4.55934516      2.98913794      0.94609599
H      -2.17015293      2.01569675      0.00638712
H      -2.54130670      2.11630753      1.74146176
H      -1.13930701     -4.41365686     -1.72399463
