12
O=C(O)c1ccsc1
O       2.23063628      0.98744230      0.89590232
C       1.53754137      0.09475230      0.43008537
O       2.07583045     -1.11986050      0.18144025
C       0.12782345      0.20215352      0.09791192
C      -0.71018592     -0.82816824     -0.44961712
C      -2.00670967     -0.40980924     -0.65287128
S      -2.23203573      1.21936113     -0.19022141
C      -0.59520233      1.36752588      0.28276982
H       3.00796618     -1.00877322      0.45934358
H      -0.36874711     -1.83057583     -0.68155118
H      -2.83335978     -0.98246722     -1.05102195
H      -0.23355718      2.30841912      0.67782968
