37
Cc1cc(Oc2cc(C)cc(S(=O)(=O)[O-])c2)cc(S(=O)(=O)[O-])c1.[Na+].[Na+]
C       2.70603836     -0.10093115     -2.83970377
C       2.53848517     -0.05323339     -1.35198629
C       1.40775524      0.54920691     -0.78218121
C       1.26322789      0.61786874      0.61078352
O       0.16986146      1.22260129      1.19537691
C      -1.06977435      0.78941104      0.77228024
C      -1.41114901     -0.57055253      0.76198841
C      -2.68353070     -0.98236512      0.34029365
C      -3.05339478     -2.43387461      0.34613608
C      -3.62166413     -0.01187945     -0.03151532
C      -3.28031582      1.34611975      0.01174478
S      -4.50575925      2.57362065     -0.51224997
O      -5.21338646      1.88963017     -1.59335145
O      -3.69123819      3.70903916     -0.93756286
O      -5.27823637      2.77519866      0.71019049
C      -2.00631998      1.75616281      0.41182913
C       2.26256001      0.13053009      1.45065808
C       3.38883825     -0.46884101      0.88210270
S       4.71017366     -1.10965417      1.94333430
O       4.55154630     -0.35415808      3.18314810
O       5.92075142     -0.79750161      1.18565968
O       4.37242308     -2.52807924      2.02411596
C       3.53725474     -0.55430725     -0.50839990
Na      0.00000000      0.00000000      0.00000000
Na      0.00000000      0.00000000      0.00000000
H       3.30082178     -0.97044686     -3.13871248
H       1.73518687     -0.18507276     -3.33931248
H       3.20678652      0.80697605     -3.18963868
H       0.63631533      0.97218938     -1.42168525
H      -0.68028571     -1.30874076      1.08429423
H      -3.80286684     -2.64981460     -0.42256356
H      -2.18059753     -3.05990632      0.13269278
H      -3.45897753     -2.71316374      1.32337547
H      -4.62269405     -0.29197980     -0.35230349
H      -1.75462309      2.81210223      0.43487211
H       2.16905509      0.20473518      2.52980794
H       4.43773259     -1.01088967     -0.91351785
