43
O=C(OCC(O)CO)c1ccccc1Nc1ccnc2cc(Cl)ccc12
O       0.71183975      0.81224195     -0.66846993
C       1.48550770     -0.08903826     -0.37905942
O       2.83585867      0.02915952     -0.30590087
C       3.33122025      1.35070339     -0.60640911
C       4.86052417      1.28938680     -0.55975524
O       5.28179494      0.97257759      0.77895697
C       5.50133826      2.61941182     -0.95371615
O       5.13294570      3.63692755     -0.02501702
C       1.04634122     -1.47375042     -0.03733552
C       1.98860428     -2.51733156      0.03383929
C       1.58652255     -3.81717015      0.34018077
C       0.24268165     -4.08941408      0.56748186
C      -0.70007338     -3.06172643      0.49642895
C      -0.32251411     -1.73866384      0.20694150
N      -1.30403567     -0.71975419      0.14220064
C      -2.45579058     -0.49414997      0.94084439
C      -2.58757270     -1.06958512      2.20486598
C      -3.72871864     -0.81123490      2.93683688
N      -4.73936282     -0.03315276      2.50411748
C      -4.63079523      0.52492477      1.28952780
C      -5.67451259      1.32357440      0.84682943
C      -5.64017821      1.93142032     -0.40548152
Cl     -6.95690020      2.91364790     -0.91756971
C      -4.55197090      1.74645319     -1.24570952
C      -3.49152277      0.94785806     -0.82034931
C      -3.50668359      0.32889699      0.45308894
H       2.99232129      1.65169276     -1.60412836
H       2.94717681      2.04164856      0.15285917
H       5.22587332      0.48786686     -1.21125980
H       4.75486489      0.19836800      1.05243597
H       6.59312673      2.54020992     -0.93211345
H       5.19253011      2.93200667     -1.95551261
H       5.34243516      3.26506434      0.85520175
H       3.04318053     -2.33530286     -0.15760275
H       2.32004922     -4.61860916      0.38945505
H      -0.07902917     -5.10429486      0.78962886
H      -1.74971876     -3.30828131      0.64369360
H      -0.92175152      0.16777970     -0.20739953
H      -1.80812743     -1.68441540      2.63827374
H      -3.86278851     -1.23281021      3.92910353
H      -6.53270848      1.46985618      1.49795439
H      -4.52052093      2.21327882     -2.22640005
H      -2.65146102      0.80372943     -1.49656963
