43
OCC1OC(n2c(-c3ccco3)nc3ccccc32)C(O)C(O)C1O
O       2.62913558     -1.01549390      2.44079018
C       3.10383626     -0.07634032      1.47575678
C       2.72510204     -0.50767069      0.04605595
O       1.36464703     -0.97654538     -0.01711380
C       0.38179806      0.06914278      0.10309390
N      -0.95993881     -0.51573562      0.12047707
C      -2.05164934      0.01081569      0.78707956
C      -2.08031831      1.22148083      1.55876667
C      -3.09207811      1.66709855      2.39403912
C      -2.68555185      2.91190227      2.92976468
C      -1.44852049      3.16569012      2.39275998
O      -1.07594010      2.15936774      1.56290443
N      -3.12007621     -0.74093374      0.61103375
C      -2.73230640     -1.75756285     -0.21789166
C      -3.49337404     -2.81666659     -0.73434618
C      -2.87852600     -3.73730965     -1.58961138
C      -1.53243780     -3.60232937     -1.92752199
C      -0.75955455     -2.55004818     -1.42245784
C      -1.38794152     -1.64044769     -0.55969035
C       0.53611054      1.11345574     -1.02408995
O       0.37585830      0.55435567     -2.34658285
C       1.95515388      1.68588443     -0.96939988
O       2.18032822      2.55834659     -2.08995879
C       3.00397904      0.56470623     -1.01648294
O       4.30757463      1.12655493     -0.85891167
H       2.35507546     -1.82329367      1.96599019
H       2.66979859      0.89211371      1.73828775
H       4.18995109      0.00497716      1.58188805
H       3.34335258     -1.38498827     -0.18337834
H       0.52962496      0.52384242      1.08538012
H      -4.01719430      1.13839464      2.58340122
H      -3.22841935      3.54338230      3.61911669
H      -0.74209731      3.97812444      2.49413752
H      -4.54211196     -2.91044372     -0.47138095
H      -3.45817756     -4.56455018     -1.99268686
H      -1.07158189     -4.33053523     -2.59245659
H       0.28948122     -2.46294679     -1.68937821
H      -0.19897586      1.92132336     -0.94357695
H      -0.53088758      0.19706044     -2.41106201
H       2.09180331      2.29650476     -0.07030896
H       1.73039070      2.12719447     -2.84674538
H       2.98181250      0.09684306     -2.00869307
H       4.34284531      1.88527951     -1.47665201
