24
NC(N)=NS(=O)(=O)c1ccc(N)cc1
N      -3.90784573      0.27343119      1.01489356
C      -3.17010827     -0.35852573      0.07092595
N      -3.87592088     -1.41410813     -0.40611890
N      -1.99832936     -0.11026155     -0.38814011
S      -1.15320124      1.16871473      0.13506774
O      -1.30009690      2.25065628     -0.81986030
O      -1.41899069      1.40382319      1.54544167
C       0.53472081      0.60651786      0.03960400
C       0.93428522     -0.47152627      0.83296283
C       2.25582581     -0.91993782      0.76639567
C       3.18991956     -0.27428512     -0.05081820
N       4.47643740     -0.80372103     -0.20129475
C       2.75761922      0.76746266     -0.87895702
C       1.43901286      1.22747975     -0.82270022
H      -3.36495833      0.91074112      1.60264629
H      -4.43490574     -0.36676302      1.59867321
H      -4.84587527     -1.17951456     -0.58733428
H      -3.44272045     -1.79747881     -1.24140645
H       0.22498599     -0.96969281      1.48922083
H       2.55266249     -1.78002500      1.36120915
H       4.81044672     -1.31272261      0.61111763
H       5.15945512     -0.13467597     -0.54307283
H       3.44859941      1.23276221     -1.57756436
H       1.12898225      2.05164945     -1.46069498
