50
CC[C@H]1[C@@H]2C[C@H]3[C@@H]4N(C)c5ccccc5[C@]45C[C@@H](C2C5O)N3[C@@H]1O
C      -5.43307487      0.11427648     -0.45986721
C      -4.04451844     -0.11314816     -1.04452708
C      -3.07432293     -0.73970327     -0.02583337
C      -1.76990661     -1.26137346     -0.70275016
C      -0.95473089     -1.83608324      0.46885173
C      -0.33666029     -0.64331940      1.24430925
C       1.14286984     -0.49025460      0.75853270
N       2.10465401      0.15245204      1.70055493
C       2.52532932     -0.60855819      2.86796529
C       3.15036910      0.52756530      0.79797630
C       4.47163622      0.81225557      1.09767299
C       5.33890777      1.15825717      0.05514083
C       4.88057954      1.23190252     -1.26987351
C       3.54498402      0.97102607     -1.57556771
C       2.69861293      0.62570180     -0.53587874
C       1.23439652      0.35380908     -0.53856962
C       0.44325777      1.65439792     -0.39258982
C      -0.96840842      1.10591249     -0.33010535
C      -1.00117654     -0.07217377     -1.35564266
C       0.49819801     -0.29647673     -1.71480246
O       0.82044889     -1.65392920     -1.94251959
N      -1.20571920      0.57777299      1.03881209
C      -2.64060445      0.24151378      1.10503507
O      -2.92108136     -0.31370797      2.37468829
H      -5.86560200     -0.82529887     -0.10146827
H      -5.40964582      0.82160984      0.37402456
H      -6.10059406      0.52176375     -1.22589688
H      -3.66397830      0.84172577     -1.42161688
H      -4.14238456     -0.78162686     -1.90849466
H      -3.58597215     -1.60363437      0.42228535
H      -1.99475186     -2.04170208     -1.43756150
H      -0.20305721     -2.54733937      0.11357326
H      -1.60007331     -2.42256792      1.13626224
H      -0.32932267     -0.89181383      2.31135164
H       1.54671328     -1.49844417      0.56821938
H       1.65416982     -0.91769440      3.45381549
H       3.08009167     -1.51088323      2.58651341
H       3.14726533      0.00233247      3.53067179
H       4.84129385      0.77875406      2.11571754
H       6.37987263      1.38212579      0.27623785
H       5.57225245      1.51218048     -2.06095413
H       3.18771522      1.05860047     -2.59570039
H       0.70477323      2.25116037      0.48977307
H       0.57397000      2.30288215     -1.26916788
H      -1.68270645      1.90013203     -0.57650959
H      -1.53216292      0.24038037     -2.26308460
H       0.72073900      0.24712276     -2.64232364
H       1.78163874     -1.70265147     -2.09797541
H      -3.22072624      1.16971667      1.05256711
H      -2.36355761      0.21505437      2.97167521
