30
CN(C)C1CCC=CCCC1
C      -2.39918900     -1.64972713     -0.11567461
N      -1.73135977     -0.45365975      0.41473067
C      -2.76189730      0.53538751      0.75636371
C      -0.70186725      0.08728984     -0.52522413
C      -0.11254759      1.43367448     -0.01524951
C       1.13355456      1.96558679     -0.73065265
C       2.49044046      1.40069055     -0.40115799
C       2.84515114      0.35304064      0.36005302
C       1.95720831     -0.58120713      1.12587877
C       1.18273335     -1.56532921      0.25315422
C       0.37467857     -0.96170621     -0.90001212
H      -1.70979274     -2.49456557     -0.19993673
H      -3.18599694     -1.99078101      0.56787899
H      -2.85587819     -1.46482588     -1.09449485
H      -3.52844392      0.09131582      1.40269911
H      -3.25803248      0.93554515     -0.13505061
H      -2.34626832      1.36588713      1.33516724
H      -1.21422849      0.32859499     -1.46902362
H       0.05690612      1.41691337      1.06587651
H      -0.88714731      2.20009191     -0.16273262
H       0.98378529      1.89832292     -1.81537057
H       1.19423856      3.03926606     -0.50553714
H       3.30649399      1.94410552     -0.88080520
H       3.90994500      0.13280691      0.43911960
H       2.59516004     -1.16435303      1.80376501
H       1.29233937     -0.03215813      1.79676988
H       0.52132119     -2.15572819      0.89843753
H       1.89346574     -2.28267856     -0.17865902
H      -0.10053992     -1.78998908     -1.44117613
H       1.05576752     -0.54181070     -1.64913675
