15
OCc1cccnc1
O      -2.50715906      0.62555623      0.78616238
C      -1.82479171      0.53839327     -0.45863577
C      -0.41175503      0.07888229     -0.26280129
C       0.47738433      0.78903137      0.54974749
C       1.78484037      0.33814670      0.70304477
C       2.16323754     -0.81266972      0.03275734
N       1.33581518     -1.52320725     -0.76325900
C       0.07192139     -1.06084967     -0.89567374
H      -2.12176293     -0.04058652      1.38138223
H      -1.84089397      1.52223669     -0.93851198
H      -2.38334211     -0.15469530     -1.09613998
H       0.15194927      1.69209253      1.06181336
H       2.49148154      0.87212285      1.32830796
H       3.17240983     -1.20509741      0.11953298
H      -0.55933464     -1.65935606     -1.54772673
