22
CSC1=CC(=O)c2ccccc2C1=O
C      -3.86141882     -0.16767775      0.75276012
S      -3.08002280     -1.56926539     -0.08205212
C      -1.49240245     -0.93606906     -0.38674082
C      -1.02970298     -0.87521172     -1.63965746
C       0.31605715     -0.37109439     -1.95876134
O       0.69203917     -0.31002591     -3.12208509
C       1.17813233      0.05217931     -0.84272328
C       2.46901637      0.52712286     -1.11032916
C       3.29591676      0.93049342     -0.06109701
C       2.83753373      0.86084739      1.25368723
C       1.55127806      0.38816521      1.52125032
C       0.71675512     -0.01792260      0.47007870
C      -0.64427161     -0.51376704      0.76998946
O      -1.02796260     -0.55829976      1.93357459
H      -3.68458096      0.76061526      0.20224377
H      -3.49502478     -0.06009420      1.77606714
H      -4.94043179     -0.33988203      0.79757628
H      -1.61901023     -1.19280202     -2.49368562
H       2.83388325      0.58327173     -2.13483000
H       4.29835298      1.29825509     -0.26986523
H       3.48202186      1.17408341      2.07242224
H       1.20384225      0.33707819      2.55217728
