38
CCN(CC)NC(=O)Nc1c(C)cccc1C
C       2.33812469     -1.77981434     -1.87124854
C       3.07889280     -0.61922671     -1.21314969
N       2.15189105      0.30586105     -0.53320903
C       2.87017508      1.31991356      0.26350000
C       3.45571611      0.74420756      1.54754085
N       1.32169572      0.96319717     -1.48077473
C      -0.06548028      0.93783919     -1.39729521
O      -0.73260255      1.40446118     -2.31174708
N      -0.50015573      0.32584489     -0.24778910
C      -1.81591718      0.04884916      0.17718778
C      -2.00987855     -1.14416406      0.92142175
C      -0.87524032     -2.08107945      1.24981252
C      -3.29984801     -1.50409367      1.34592825
C      -4.39129033     -0.69691522      1.05596809
C      -4.19954514      0.49513759      0.36727576
C      -2.91679400      0.90176674     -0.05123112
C      -2.82506013      2.26610851     -0.67869019
H       1.73355960     -2.32609997     -1.13981309
H       3.05657724     -2.48329051     -2.30469866
H       1.68089313     -1.43883095     -2.67746763
H       3.68081160     -0.09172148     -1.96386596
H       3.77441504     -1.05749307     -0.48990607
H       2.16446431      2.10640645      0.56257970
H       3.65467132      1.80782367     -0.32843736
H       2.68809976      0.22719078      2.13321693
H       4.27146161      0.04303523      1.35015737
H       3.86057065      1.55188397      2.16643428
H       1.70538504      1.36189085     -2.33227371
H       0.26207248     -0.21587512      0.13900930
H      -0.12430597     -1.57071974      1.86158094
H      -0.41314986     -2.45497902      0.33068782
H      -1.22022147     -2.95112842      1.81890935
H      -3.46186245     -2.42657438      1.89897844
H      -5.38761348     -0.98622302      1.37847984
H      -5.06153663      1.13090617      0.17281728
H      -3.59643189      2.93013598     -0.27030850
H      -2.98070798      2.20341961     -1.75910229
H      -1.87183528      2.75234986     -0.45240891
