59
CC(=O)N1CCN(C(=O)/C=C/c2ccc(Sc3ccccc3C(C)C)c([N+](=O)[O-])c2)CC1
C       9.08701760     -1.54359283     -0.21111394
C       7.74818110     -2.05158719     -0.68409777
O       7.53964977     -3.26171997     -0.76947911
N       6.79211323     -1.10097984     -1.03105311
C       6.90067191      0.31897570     -0.64175566
C       6.02920853      1.23368270     -1.51811581
N       4.65918002      0.72658649     -1.59157236
C       3.77706754      1.16471167     -0.61229286
O       4.08840821      1.96132962      0.26953815
C       2.39446099      0.63204932     -0.69359037
C       1.67987916      0.48363602      0.43283152
C       0.30495916     -0.01973298      0.43507249
C      -0.03012813     -1.09316180      1.26733848
C      -1.34063526     -1.58806840      1.30567768
C      -2.35415834     -1.01298422      0.52587418
S      -3.99578559     -1.70179148      0.68872847
C      -4.84884150     -0.38530434      1.56553948
C      -4.35791015     -0.02960754      2.83591989
C      -4.97284118      0.96534022      3.59335214
C      -6.09865148      1.60738558      3.09882864
C      -6.60851571      1.25318286      1.84922860
C      -5.99697592      0.26103661      1.05384253
C      -6.62202307     -0.09974129     -0.29184539
C      -6.96182003      1.12517826     -1.15156616
C      -7.86330482     -0.97199972     -0.08570040
C      -1.99819205      0.05726798     -0.30355834
N      -2.96958543      0.68293032     -1.17422117
O      -3.42559312     -0.00060932     -2.10065937
O      -3.22386783      1.87694521     -0.96573251
C      -0.68999899      0.56567019     -0.35078990
C       4.60103372     -0.62719676     -2.15809430
C       5.43104971     -1.59606670     -1.29886497
H       9.58176752     -0.98962949     -1.01408062
H       8.96841673     -0.91554954      0.67511584
H       9.72129176     -2.39259303      0.06609576
H       6.58884234      0.38106949      0.40866491
H       7.94053278      0.65213768     -0.70144438
H       6.42356817      1.26011248     -2.54119112
H       6.04406208      2.25836785     -1.13190994
H       1.99429850      0.41342899     -1.67430857
H       2.11487658      0.71421036      1.40447218
H       0.72763991     -1.55879772      1.89732898
H      -1.56148854     -2.42974480      1.96333944
H      -3.49152294     -0.53357597      3.25779524
H      -4.57894199      1.23070465      4.57058509
H      -6.59024064      2.37869921      3.68613274
H      -7.50610672      1.76128213      1.50396383
H      -5.91282375     -0.68035890     -0.88906921
H      -7.77634295      1.72108918     -0.72585703
H      -7.27991626      0.81060058     -2.15141548
H      -6.09105462      1.77922649     -1.26863128
H      -7.62058444     -1.87466478      0.48737808
H      -8.27520701     -1.28876787     -1.05038805
H      -8.65188523     -0.43652283      0.45523756
H      -0.45744390      1.41469766     -0.99115547
H       5.01510807     -0.57323499     -3.17249441
H       3.57552390     -0.99513664     -2.23902710
H       5.47328930     -2.57418490     -1.79045643
H       4.95028934     -1.73668074     -0.32234929
