39
CCCN(CCOc1c(Cl)cc(Cl)cc1Cl)C(=O)n1ccnc1
C      -2.92119388      1.64487857      2.58454472
C      -2.32798180      1.59178260      1.18538304
C      -1.78344050      0.19992016      0.86423327
N      -1.34192355      0.05694546     -0.53548873
C      -0.14607667      0.81359493     -0.93023722
C       1.18654226      0.27751683     -0.38973838
O       2.20378110      1.25037347     -0.68438005
C       3.45056322      0.75395096     -0.39456395
C       4.01189403      0.94080245      0.87541549
Cl      3.15648131      1.76649478      2.12892262
C       5.29458073      0.46675880      1.15499933
C       6.02272700     -0.17724485      0.15677859
Cl      7.60416761     -0.76084131      0.50083476
C       5.48914505     -0.34453934     -1.11906265
C       4.20662352      0.13065137     -1.39638909
Cl      3.59172977     -0.06352598     -2.99840202
C      -1.51822147     -1.16126551     -1.20295856
O      -0.65259715     -1.77830685     -1.80997864
N      -2.83807703     -1.65062644     -1.22613125
C      -4.03677364     -1.01130011     -0.96599029
C      -5.02139455     -1.95081426     -1.15535783
N      -4.48472477     -3.14071000     -1.55540634
C      -3.18976039     -2.92482278     -1.62427045
H      -3.75597650      0.94367346      2.68370501
H      -2.16873380      1.39370958      3.33890262
H      -3.29587489      2.65052956      2.79946724
H      -3.09497436      1.87569407      0.45625435
H      -1.53111824      2.33982233      1.11442070
H      -0.92902199     -0.02796744      1.51173859
H      -2.52950411     -0.56252067      1.10728134
H      -0.28028695      1.86210143     -0.64468585
H      -0.09547677      0.81758544     -2.02737609
H       1.12681823      0.13323857      0.69374728
H       1.42485717     -0.68787291     -0.85062001
H       5.72733457      0.60590198      2.14259372
H       6.07087505     -0.83551296     -1.89532628
H      -4.08866575      0.03362070     -0.70346169
H      -6.09092292     -1.82549988     -1.04201290
H      -2.44539892     -3.64617621     -1.93802697
