12
Clc1c(Cl)c(Cl)c(Cl)c(Cl)c1Cl
Cl     -1.32333623      2.85857476     -0.03252820
C      -0.59119750      1.27706132     -0.01453064
C       0.81039572      1.15034415     -0.02404940
Cl      1.81399018      2.57493071     -0.05383195
C       1.40159316     -0.12671717     -0.00951984
Cl      3.13732659     -0.28364372     -0.02131510
C       0.59119751     -1.27706136      0.01453033
Cl      1.32333645     -2.85857473      0.03252767
C      -0.81039577     -1.15034416      0.02405081
Cl     -1.81398983     -2.57493131      0.05383125
C      -1.40159339      0.12671724      0.00952068
Cl     -3.13732688      0.28364428      0.02131439
