33
CCN(CC)S(=O)(=O)N(CC)CC
C       2.67716237     -1.57541240     -1.99473152
C       2.18795907     -1.66572561     -0.55816675
N       1.16627280     -0.64355899     -0.20684822
C       1.71851306      0.70567797      0.07638880
C       2.17519229      0.78169214      1.52485104
S      -0.25551402     -0.68004916     -1.12042101
O      -0.06952714      0.18095602     -2.26548021
O      -0.68415768     -2.05161800     -1.26894392
N      -1.32532592      0.07712022     -0.03859972
C      -1.59527879     -0.69754405      1.20364233
C      -1.92702673      0.24911068      2.34729671
C      -2.56429906      0.58830781     -0.69021716
C      -2.46981483      2.09892316     -0.81773782
H       3.06618300     -0.58078304     -2.23081226
H       1.88097330     -1.80458580     -2.70914561
H       3.48200058     -2.29911441     -2.15994501
H       1.77182450     -2.66124052     -0.36534605
H       3.04497719     -1.56731101      0.11715680
H       0.96127104      1.48146623     -0.07966122
H       2.55210256      0.93599538     -0.59412650
H       1.35535296      0.54156585      2.20907376
H       2.53003480      1.79066809      1.75716073
H       2.99295358      0.08335661      1.72699343
H      -0.71477285     -1.27819763      1.49768179
H      -2.41547304     -1.40598065      1.04208122
H      -2.85183890      0.80270540      2.15797577
H      -1.12583146      0.98003885      2.49702463
H      -2.05711318     -0.31260476      3.27757506
H      -2.71081486      0.13612198     -1.67751340
H      -3.45418558      0.32826270     -0.10652515
H      -3.37403089      2.49841413     -1.28708391
H      -2.35768168      2.56991406      0.16439067
H      -1.61008650      2.39342877     -1.42798730
