20
Cc1cc([N+](=O)[O-])cc([N+](=O)[O-])c1O
C      -0.32819027      2.69642494     -0.05403736
C      -0.22682707      1.19523101     -0.00696931
C      -1.36950177      0.42650733      0.26647803
C      -1.28448033     -0.97213047      0.31229363
N      -2.48960443     -1.76354127      0.59980856
O      -3.54845759     -1.15126173      0.79297876
O      -2.37110175     -2.99567699      0.63109040
C      -0.06499365     -1.62226729      0.08729278
C       1.07858935     -0.85426790     -0.18631316
N       2.34909679     -1.54987838     -0.41990353
O       3.34738485     -0.85268660     -0.65996615
O       2.35350063     -2.78626180     -0.36464082
C       1.00169210      0.54958853     -0.23406030
O       2.06778880      1.37119245     -0.49392834
H      -0.04207100      3.06445832     -1.04460753
H       0.32291849      3.14392499      0.70381691
H      -1.35014949      3.03652940      0.14384305
H      -2.32115077      0.92814082      0.44232026
H      -0.00744383     -2.70959991      0.12469397
H       2.88300094      0.84557454     -0.64018985
