47
COc1ccc2nccc(C(O)C3CC4CCN3CC4C(=O)O)c2c1
C       4.61697156      4.21220448     -0.22133928
O       3.48612303      3.36009381     -0.37276100
C       3.60659135      2.09000900      0.11749265
C       4.65022618      1.61017307      0.89272304
C       4.64239284      0.27712014      1.31191665
C       3.61463995     -0.59514114      0.98668842
N       3.71685504     -1.85843895      1.42112145
C       2.74413614     -2.72116633      1.08030040
C       1.62863178     -2.37249805      0.34522258
C       1.47542786     -1.04556224     -0.07681743
C       0.24483500     -0.61854731     -0.86210011
O       0.57312883     -0.71807067     -2.25207268
C      -1.08682638     -1.40414152     -0.61991566
C      -1.60611400     -1.29041831      0.83180033
C      -3.08068209     -0.84587307      0.81629511
C      -3.86656166     -1.87509319     -0.01781122
C      -3.29208831     -1.94798303     -1.44052787
N      -2.15278518     -1.01215318     -1.61179379
C      -2.66986104      0.35797010     -1.34038646
C      -3.10971095      0.53287555      0.12182062
C      -4.45142206      1.21849629      0.22540644
O      -5.42850138      0.83285216      0.84229168
O      -4.47713922      2.40670287     -0.41043775
C       2.52414362     -0.12344399      0.21938531
C       2.55622232      1.22830844     -0.20999231
H       4.79429970      4.44491719      0.83416557
H       5.50894021      3.77712466     -0.68688033
H       4.39857716      5.15276387     -0.73637755
H       5.48720790      2.23307065      1.18678081
H       5.47221364     -0.09530872      1.90882555
H       2.88990420     -3.74090800      1.42464621
H       0.90843028     -3.14598083      0.10809844
H       0.03536368      0.43348527     -0.64564249
H      -0.29266985     -0.74578598     -2.70807535
H      -0.87653098     -2.46010735     -0.83532684
H      -1.52143585     -2.26365016      1.33029904
H      -1.01334289     -0.57737524      1.41694012
H      -3.47693532     -0.79264950      1.83605045
H      -3.80419978     -2.86178896      0.45690002
H      -4.92786648     -1.60885467     -0.05951421
H      -2.97400703     -2.97341238     -1.66823735
H      -4.07513507     -1.71751428     -2.17410340
H      -1.89520891      1.09570603     -1.58228130
H      -3.48661121      0.57421348     -2.04207748
H      -2.39908946      1.18993477      0.64208296
H      -5.37670557      2.75552931     -0.23042140
H       1.76616843      1.62831591     -0.83968794
