44
COC(=O)C(Cc1ccccc1)NC(=O)C(CC(=O)O)NC(=O)C(F)(F)F
C      -3.45418531      2.99100603      0.94489045
O      -2.62571008      2.11832410      0.17738543
C      -1.72040047      1.41691771      0.91376504
O      -1.57540286      1.51108488      2.12797818
C      -0.90210551      0.48069627      0.02475750
C      -1.48434897     -0.93867288      0.08423773
C      -2.82224664     -1.06721237     -0.60284172
C      -2.89719030     -1.09732686     -2.00207614
C      -4.13365051     -1.19725672     -2.64077611
C      -5.30448238     -1.26756612     -1.88835267
C      -5.24036194     -1.23905112     -0.49649285
C      -4.00508694     -1.13936880      0.14514991
N       0.48531473      0.49401539      0.50449914
C       1.53667305      0.14067563     -0.30139831
O       1.38654349     -0.18482552     -1.47997026
C       2.92907406      0.15682926      0.36300606
C       3.09383325     -1.03764713      1.30306206
C       2.52738334     -0.72819954      2.65622366
O       1.76239759      0.18176689      2.93072507
O       2.91147420     -1.61612871      3.59023431
N       3.90178423      0.10127560     -0.73255588
C       5.21844404      0.50739309     -0.58132311
O       5.64785294      0.86277947      0.51809251
C       6.07657792      0.45815141     -1.86636141
F       6.64876671      1.65697441     -2.15975904
F       7.08552898     -0.45107067     -1.78146099
F       5.33752848      0.10783105     -2.95973392
H      -2.84838125      3.75405075      1.44341849
H      -4.14615459      3.49003771      0.26092550
H      -4.03884211      2.42144046      1.67413232
H      -0.89681968      0.87086240     -1.00014756
H      -1.57249629     -1.26698287      1.12888371
H      -0.79378098     -1.65325167     -0.38319240
H      -1.99137830     -1.04412470     -2.60372086
H      -4.18303937     -1.22065840     -3.72636323
H      -6.26691675     -1.34596401     -2.38707407
H      -6.15383892     -1.29524087      0.08986343
H      -3.97504189     -1.11698164      1.23254494
H       0.64035194      0.69536714      1.49737550
H       3.06465911      1.11534561      0.87816471
H       2.59149331     -1.92854901      0.90990023
H       4.15632343     -1.27083623      1.43840994
H       2.48693205     -1.31609559      4.42198470
H       3.54292514     -0.10981383     -1.66600997
