35
CCCNC(=O)c1cc(N2CC2)c([N+](=O)[O-])cc1[N+](=O)[O-]
C       4.02230296      1.94750846     -0.48604083
C       4.05812459      0.51077894     -0.98721623
C       3.63821091     -0.49575904      0.08205939
N       2.25140034     -0.33903328      0.47887514
C       1.22713812     -0.89854498     -0.24613802
O       1.39356040     -1.55990924     -1.26430983
C      -0.16157998     -0.63250072      0.20271994
C      -1.10973481     -0.37653313     -0.81080152
C      -2.46836859     -0.14783599     -0.52109166
N      -3.45624105      0.13295434     -1.49855842
C      -3.11670590      0.89668699     -2.70291635
C      -3.41851235     -0.56488295     -2.78913881
C      -2.84134746     -0.20539605      0.83496980
N      -4.22301668      0.01615683      1.20513391
O      -4.99163365     -0.94952805      1.11620204
O      -4.50165779      1.13428240      1.65799108
C      -1.93636833     -0.46974100      1.86935863
C      -0.59894428     -0.68251252      1.52758967
N       0.31523983     -0.98578229      2.59995048
O       1.05317420     -0.06294933      2.97100019
O       0.25914069     -2.12090667      3.08249383
H       4.37888578      2.62762584     -1.26618987
H       3.00584657      2.25036851     -0.21611592
H       4.66407063      2.07262666      0.39195421
H       5.07908952      0.27684914     -1.31038041
H       3.41234492      0.42172267     -1.86841815
H       3.78117850     -1.51378695     -0.29701985
H       4.25023507     -0.38256288      0.98308630
H       2.07097836      0.28135390      1.26375488
H      -0.76037066     -0.36374121     -1.84302621
H      -3.88992395      1.59889567     -2.98669211
H      -2.09899741      1.24550325     -2.79454840
H      -4.39970657     -0.87149223     -3.12758801
H      -2.61791402     -1.27453901     -2.93955136
H      -2.26989792     -0.51537610      2.90443710
