59
CCC(=O)OC/C=C(C)/C=C/C=C(C)/C=C/C1=C(C)CCCC1(C)C
C       8.60594890      1.15561152     -3.35135203
C       8.33421232     -0.26757026     -2.90655181
C       7.74432881     -0.31875661     -1.51348165
O       7.89914022      0.53966930     -0.65614013
O       7.06207678     -1.48746642     -1.35612405
C       6.45058915     -1.69308044     -0.07477539
C       4.96937084     -1.51548533     -0.23408826
C       4.17162819     -0.57693755      0.31142359
C       4.67932891      0.54148267      1.18391960
C       2.73336902     -0.62905810      0.03124819
C       1.78619586      0.14813465      0.57483840
C       0.37760743      0.01097886      0.25415151
C      -0.65142309      0.70351536      0.78764182
C      -0.50972086      1.81745356      1.79955334
C      -2.00729833      0.40210078      0.33026095
C      -3.13801244      0.64827409      1.01429012
C      -4.47074232      0.33940070      0.51107936
C      -5.07083340      1.12723928     -0.41530799
C      -4.47394168      2.38903871     -0.98911430
C      -6.45134818      0.83347557     -0.96625262
C      -6.96989294     -0.56334063     -0.65672266
C      -6.65827379     -0.94100189      0.78470999
C      -5.13670239     -0.92679808      1.08498345
C      -4.98613712     -1.03731121      2.61689405
C      -4.48280713     -2.16968334      0.44181000
H       9.31699500      1.65767983     -2.68944269
H       7.68784099      1.74740753     -3.34654278
H       9.01705212      1.16167465     -4.36883219
H       9.25564555     -0.85374773     -2.90819554
H       7.63220020     -0.72430464     -3.60926095
H       6.89568021     -1.08722642      0.71420091
H       6.64678875     -2.73336239      0.20291035
H       4.52358806     -2.27794358     -0.86955772
H       5.76810053      0.57530851      1.27150399
H       4.37943571      1.50475429      0.77206273
H       4.27947268      0.45096914      2.19341870
H       2.42127616     -1.38813773     -0.68015697
H       2.06377543      0.89604596      1.29944197
H       0.15201497     -0.77130292     -0.47320076
H       0.51614599      2.16901657      1.91740550
H      -1.08840972      2.69373599      1.48243933
H      -0.86152857      1.49470587      2.78374240
H      -2.09123195     -0.07495701     -0.64265148
H      -3.10996648      1.05941511      2.01727394
H      -4.25059522      2.23851134     -2.05456800
H      -3.54474908      2.70590134     -0.49630402
H      -5.18538184      3.22588333     -0.89092563
H      -6.45842330      0.97343438     -2.05677424
H      -7.14706594      1.57516437     -0.54526006
H      -6.52596495     -1.28959633     -1.34914962
H      -8.05139036     -0.59659995     -0.82744674
H      -7.17492574     -0.23414456      1.45119658
H      -7.08012273     -1.93065970      0.99923571
H      -5.39156348     -0.15291869      3.11908665
H      -5.52408770     -1.91425246      2.99805782
H      -3.94088225     -1.14879912      2.92309872
H      -5.00566010     -3.08396654      0.73730893
H      -4.49945356     -2.11073893     -0.65096862
H      -3.43127215     -2.28683469      0.74645218
