40
Cc1cc(-n2nc3ccc(Cl)cc3n2)c(O)c(C(C)(C)C)c1
C      -0.93556111      2.37013530      3.44975493
C      -0.81506122      1.53891317      2.20530579
C       0.43428828      1.10074154      1.76756170
C       0.54280851      0.29860307      0.62242711
N       1.83829845     -0.11710425      0.20835821
N       2.01386846     -0.89682666     -0.89457575
C       3.34267168     -1.06200256     -0.94186300
C       4.11335308     -1.78142077     -1.87158829
C       5.49992615     -1.74845804     -1.62390001
C       6.07541051     -1.04855068     -0.52826287
Cl      7.79327463     -1.09279787     -0.34452723
C       5.32652163     -0.32268474      0.41392550
C       3.94115721     -0.34493773      0.18193305
N       2.95987122      0.23706227      0.88247499
C      -0.62279106     -0.07455471     -0.08263384
O      -0.55812616     -0.85723294     -1.20816129
C      -1.90717814      0.34061331      0.34467515
C      -3.20270308     -0.06000015     -0.40511755
C      -4.49622566      0.50512122      0.23941926
C      -3.36950308     -1.59625571     -0.41625785
C      -3.17926154      0.47893432     -1.85326829
C      -1.96405208      1.14642881      1.50253992
H      -1.08138200      1.72194680      4.31929025
H      -0.03588360      2.97457240      3.60628121
H      -1.78123653      3.06197071      3.37624694
H       1.32148148      1.39232667      2.32816043
H       3.67734612     -2.31475093     -2.70613292
H       6.15718244     -2.28669525     -2.30784612
H       5.76785380      0.20846271      1.24601653
H       0.37877801     -1.07925231     -1.39759184
H      -4.49413059      1.60133006      0.25713008
H      -5.38613682      0.19802781     -0.32375869
H      -4.62908208      0.14245555      1.26548363
H      -3.34793006     -2.00083828      0.60261261
H      -4.32573651     -1.88554147     -0.86843713
H      -2.59010652     -2.10703631     -0.98819236
H      -4.12766856      0.27556363     -2.36483748
H      -3.02101579      1.56385531     -1.86582997
H      -2.39467153      0.02625705     -2.46559759
H      -2.91864794      1.49361967      1.89016247
