43
CCOc1ccccc1NC(=O)C(=O)Nc1ccccc1CC
C       4.94207901     -2.73797153     -0.46859689
C       5.18387215     -1.29827263     -0.05183637
O       3.91812642     -0.64473295      0.01897802
C       3.90967881      0.68144305      0.38306379
C       5.04617420      1.43572446      0.68826638
C       4.91947996      2.77930835      1.04697465
C       3.66110114      3.37319255      1.10215181
C       2.51973431      2.62835286      0.79912188
C       2.63439203      1.28390715      0.43914292
N       1.52822254      0.47278015      0.12091264
C       0.19598560      0.80585742      0.09822407
O      -0.33964323      1.87826990      0.34744738
C      -0.70147940     -0.38523539     -0.30635634
O      -0.17521883     -1.46050875     -0.55455638
N      -2.03448978     -0.03250731     -0.32654735
C      -3.15227642     -0.83366208     -0.63355343
C      -3.02058893     -2.18559540     -0.97575196
C      -4.14104243     -2.96788101     -1.26683969
C      -5.41157676     -2.41004610     -1.21817848
C      -5.56186627     -1.06710361     -0.88167435
C      -4.44351959     -0.26057254     -0.59243750
C      -4.70141928      1.18648776     -0.22910977
C      -4.71119278      1.40735921      1.27656103
H       4.29050528     -3.24354802      0.25186461
H       5.88503626     -3.28739013     -0.53855950
H       4.43599205     -2.77854953     -1.43888145
H       5.82190407     -0.81228670     -0.79881562
H       5.67323573     -1.28742463      0.92880190
H       6.04352989      1.01095209      0.65716259
H       5.80504960      3.36402637      1.28396189
H       3.56404787      4.41949467      1.38163358
H       1.55604540      3.12441609      0.85272835
H       1.75070114     -0.49264847     -0.12535540
H      -2.19564757      0.93815855     -0.07284183
H      -2.05046858     -2.67011348     -1.02386106
H      -4.01421671     -4.01517873     -1.52876832
H      -6.28403567     -3.01841245     -1.44081451
H      -6.56515901     -0.64682806     -0.84489553
H      -3.96216056      1.83713977     -0.70991387
H      -5.66785012      1.50430285     -0.64107846
H      -3.75039232      1.14540714      1.73104380
H      -5.48534634      0.80101225      1.75909733
H      -4.91530287      2.45887689      1.50208546
