27
CCCC(=O)OCn1c(=O)[nH]cc(F)c1=O
C       4.89065363      0.54643503     -0.09645747
C       3.77680610     -0.46844472     -0.29502097
C       2.40281531      0.15674414     -0.06849659
C       1.28844090     -0.84396162     -0.26383235
O       1.43110090     -2.02015794     -0.56418945
O       0.09038769     -0.23470602     -0.05230810
C      -1.02065323     -1.11650222     -0.22517378
N      -2.22723573     -0.35998366      0.02130675
C      -2.70561763     -0.30790529      1.32081274
O      -2.19322867     -0.88117689      2.27880666
N      -3.83813072      0.44655565      1.51190581
C      -4.47667575      1.13279001      0.51986110
C      -4.01298512      1.10234989     -0.72673740
F      -4.61123620      1.76747709     -1.73195677
C      -2.79644947      0.32049300     -1.04816854
O      -2.35713260      0.30126889     -2.19563930
H       4.87755778      0.94912537      0.92138333
H       5.86525802      0.07726294     -0.26357355
H       4.79062325      1.38091573     -0.79786099
H       3.92441050     -1.30767601      0.39526991
H       3.83814545     -0.87941827     -1.30987907
H       2.33709562      0.54588398      0.95374379
H       2.24994976      0.98036277     -0.77491328
H      -1.02881873     -1.51010060     -1.24854005
H      -0.94886453     -1.95046148      0.48298281
H      -4.18412971      0.47651637      2.46548376
H      -5.36208680      1.69631387      0.79119101
