18
Cc1ccc([N+](=O)[O-])cc1O
C       2.67106412     -0.29616432      0.17041086
C       1.17128966     -0.20984473      0.14038550
C       0.39666510     -1.10298386      0.89469817
C      -0.99776721     -1.02772855      0.87088073
C      -1.62134420     -0.05016129      0.08532330
N      -3.08620974      0.03276776      0.05712075
O      -3.59922083      0.91182497     -0.65058506
O      -3.72468090     -0.77945208      0.74130362
C      -0.86418940      0.85041198     -0.67461298
C       0.52542175      0.75955663     -0.63785892
O       1.29173426      1.62363183     -1.36808599
H       3.09700434      0.63937323      0.54708307
H       3.01341909     -1.10470078      0.82484864
H       3.05939977     -0.49427502     -0.83382297
H       0.87678344     -1.86448234      1.50677859
H      -1.57637721     -1.73226147      1.46501713
H      -1.34952250      1.60795739     -1.28330409
H       0.71653046      2.23653066     -1.85558037
