22
COC(=O)COc1ccc(Cl)cc1Cl
C      -4.73752727      0.33471668      0.21186180
O      -3.37156037      0.73317309      0.34184223
C      -2.47601302     -0.25623131      0.03926501
O      -2.78249203     -1.38645395     -0.31262687
C      -1.06265596      0.28242485      0.21293042
O      -0.09543170     -0.71379189     -0.09142780
C       1.22873938     -0.38044936      0.01813951
C       1.70067578      0.87731695      0.41036739
C       3.07610881      1.12200900      0.49268595
C       3.98513462      0.11273127      0.18397950
Cl      5.67335274      0.42453046      0.28857093
C       3.53585253     -1.14316963     -0.20756412
C       2.16258460     -1.38673108     -0.28952195
Cl      1.65398102     -2.96536669     -0.78142104
H      -4.96474250     -0.48557676      0.89991205
H      -4.95663932      0.04819359     -0.82149042
H      -5.36589512      1.19033362      0.47421184
H      -0.95916812      0.59401242      1.25870373
H      -0.95103623      1.13071708     -0.47218290
H       1.02977306      1.69304986      0.66017630
H       3.43055979      2.10370806      0.79875893
H       4.24639932     -1.92914628     -0.44795646
