32
C[C@]1(Cn2ccnn2)[C@H](C(=O)O)N2C(=O)C[C@H]2S1(=O)=O
C       0.41396475      0.91564738      1.68847195
C       0.13580173      0.35042156      0.28419360
C       1.24296030      0.68491366     -0.72768495
N       2.56536464      0.22899752     -0.35905299
C       3.21392497     -0.89938519     -0.75493275
C       4.43394531     -0.80816969     -0.13007029
N       4.49464127      0.35508625      0.58324722
N       3.34365224      0.99394135      0.42312446
C      -1.24492986      0.77703992     -0.25625105
C      -1.53601648      2.25774135     -0.05432483
O      -0.87306681      3.16435661     -0.53402069
O      -2.57234568      2.52594102      0.75899921
N      -2.24909801     -0.10581257      0.35242202
C      -3.14821454     -0.72637709     -0.47569349
O      -3.74082681     -0.30654180     -1.43934391
C      -2.91302519     -2.08880294      0.18959718
C      -1.79897829     -1.38543123      0.96393002
S      -0.10475307     -1.45045857      0.37480115
O       0.75226304     -2.00944256      1.39849173
O      -0.06699191     -1.96892376     -0.98033130
H      -0.43188574      0.75436393      2.36568005
H       1.28129792      0.43914897      2.15648437
H       0.61017167      1.99249324      1.65241619
H       1.31950130      1.76940772     -0.87184300
H       1.02866052      0.25917688     -1.71558325
H       2.77548759     -1.64535668     -1.40199997
H       5.26117235     -1.50254556     -0.15542123
H      -1.29336538      0.61376159     -1.34257867
H      -2.65077357      3.50375444      0.76638878
H      -3.75772205     -2.42930393      0.79449232
H      -2.60304771     -2.87888647     -0.49749337
H      -1.88776849     -1.38075534      2.05390100
