7
O=P([O-])([O-])F.[Na+].[Na+]
O       0.06937595      0.29460246      1.52412528
P       0.01091873     -0.11447596      0.05942709
O      -1.26282016     -0.82142294     -0.38093477
O       1.30606277     -0.65391274     -0.53024498
F      -0.12353730      1.29520919     -0.67237263
Na      0.00000000      0.00000000      0.00000000
Na      0.00000000      0.00000000      0.00000000
