34
CC(C)(N=NC(C)(C)C(=N)N)C(=N)N.[Cl-].[H+]
C       1.76396786     -1.37204438      1.36753642
C       1.80020766     -0.45791492      0.14157973
C       2.67513033     -1.17477959     -0.87943271
N       0.50585582     -0.18332511     -0.35883614
N      -0.55016150     -0.33564130      0.30985421
C      -1.79821701     -0.01413593     -0.33504140
C      -1.59659345      0.98845403     -1.44846484
C      -2.34903994     -1.31789727     -0.86972682
C      -2.76748611      0.57805154      0.61420852
N      -3.89035404     -0.02109363      0.80044761
N      -2.53705696      1.76733980      1.33326852
C       2.45706983      0.81893572      0.47883302
N       2.89270886      1.01189035      1.66545691
N       2.59211324      1.80662655     -0.51978822
Cl      0.00000000      0.00000000      0.00000000
H       0.00000000      0.00000000      0.00000000
H       1.34890488     -2.36143070      1.02906960
H       1.17939159     -0.94445931      2.18391571
H       2.82213363     -1.58184865      1.63473935
H       3.70048234     -1.15609864     -0.49543065
H       2.32835255     -2.23202123     -0.89253783
H       2.55473057     -0.74336963     -1.89023268
H      -2.60127232      1.34809937     -1.74603687
H      -1.04317261      0.57311945     -2.30095145
H      -1.07729961      1.86275388     -0.99397660
H      -2.55405414     -2.02096376     -0.03850207
H      -3.23904748     -1.13516015     -1.50487307
H      -1.58876369     -1.82065493     -1.51062647
H      -4.20202375     -0.88616680      0.35548435
H      -2.02816726      2.54886845      0.89756030
H      -2.88129274      1.85115408      2.29984558
H       2.80411405      0.30806598      2.40287151
H       1.78704105      2.44502419     -0.68525894
H       3.49179836      1.85062252     -1.04495456
