13
Oc1c(Br)c(Br)c(Br)c(Br)c1Br
O      -2.55608422     -0.17345643     -0.02844477
C      -1.18682652     -0.05243415     -0.01454428
C      -0.62252445      1.22981181     -0.06744913
Br     -1.80593169      2.73151725     -0.15589366
C       0.77658639      1.37725875     -0.05437537
Br      1.54939975      3.13299471     -0.12681516
C       1.60174216      0.22914418      0.01209674
Br      3.51482235      0.42103254      0.03043409
C       1.02286060     -1.06050636      0.06514370
Br      2.12365368     -2.62921342      0.15558485
C      -0.37609064     -1.19383232      0.05140078
Br     -1.25176559     -2.89319160      0.11967633
H      -2.78984183     -1.11912497      0.01318589
