26
CC(=O)Nc1ccc2nc(S(N)(=O)=O)sc2c1
C      -5.31217062     -0.49579534      0.15758216
C      -4.02909500      0.25192157     -0.10834978
O      -4.04955003      1.39735671     -0.54337110
N      -2.91049618     -0.49332285      0.22138809
C      -1.55685813     -0.11065093      0.10577977
C      -1.14034561      1.12146340     -0.39443333
C       0.22213822      1.44351118     -0.48590226
C       1.19381421      0.51598297     -0.06931551
N       2.56575602      0.70322942     -0.10433962
C       3.14942845     -0.38225839      0.36665855
S       4.90708682     -0.60120080      0.50839256
N       5.61561225      0.84701421     -0.00918064
O       5.18462527     -0.70255663      1.92356919
O       5.26251947     -1.62704479     -0.44453475
S       2.14224594     -1.65937697      0.86554875
C       0.76495570     -0.71659239      0.43004132
C      -0.59925514     -1.04772493      0.52476309
H      -5.20628028     -1.55541282     -0.09231783
H      -6.11045655     -0.07964581     -0.46375751
H      -5.58048101     -0.39098239      1.21204136
H      -3.08082841     -1.41792042      0.59766210
H      -1.85130159      1.87115143     -0.73029318
H       0.52820735      2.40872433     -0.87860125
H       5.08129435      1.24925468     -0.78190313
H       5.69949386      1.48776997      0.78033663
H      -0.89005934     -2.01689438      0.91845982
