19
CCCC(C)C=O
C      -2.72143355     -0.02856990     -0.42697031
C      -1.42716815      0.15508133      0.35058770
C      -0.20425498      0.04074417     -0.56544734
C       1.11643213      0.24362873      0.19088700
C       2.27146013      0.45497759     -0.78530094
C       1.47464885     -0.93178213      1.08364356
O       0.86686048     -1.99633750      1.12142983
H      -3.58206227      0.06092365      0.24329162
H      -2.82042275      0.73031983     -1.20965757
H      -2.75886656     -1.01595074     -0.89813137
H      -1.38338628     -0.59507482      1.14721263
H      -1.43690699      1.13910817      0.83368847
H      -0.29037772      0.80046540     -1.35289411
H      -0.20955983     -0.93577615     -1.06605343
H       1.03633740      1.12516631      0.83821246
H       2.09839617      1.33628203     -1.41157574
H       2.39922712     -0.41274964     -1.44223617
H       3.21569174      0.60356500     -0.24976261
H       2.35538506     -0.77402132      1.73107033
