35
Cc1nnc2n1-c1ccc(Cl)cc1C(c1ccccc1Cl)=NC2
C       3.96862149     -0.16078461     -1.35096509
C       3.36959641     -0.80299321     -0.15734249
N       3.84073118     -1.89427569      0.41200757
N       2.95771753     -2.29127424      1.37652195
C       1.95942188     -1.43472945      1.38786241
N       2.18832298     -0.43472450      0.46757232
C       1.39488489      0.72991289      0.30594246
C       2.01957549      1.94818260     -0.00999678
C       1.27052509      3.12309988     -0.11155992
C      -0.10133041      3.09192183      0.11047790
Cl     -1.01866853      4.54186660     -0.00211278
C      -0.73756317      1.89384249      0.42356493
C       0.00065964      0.70007415      0.51206741
C      -0.77408738     -0.56478951      0.72713997
C      -2.04817084     -0.75122969     -0.03015337
C      -3.20143997     -1.03120444      0.71847922
C      -4.42983145     -1.19994950      0.07905515
C      -4.51100646     -1.10173618     -1.30870903
C      -3.36197597     -0.84706463     -2.06059478
C      -2.12605760     -0.67774542     -1.42753925
Cl     -0.74430381     -0.43087667     -2.43532592
N      -0.44693873     -1.51398723      1.53635923
C       0.79295947     -1.43180529      2.29735484
H       4.65175657      0.64135151     -1.05788517
H       4.54905418     -0.89578619     -1.91890458
H       3.20622536      0.23948964     -2.02557641
H       3.09689087      2.02977169     -0.12684161
H       1.76836462      4.06178641     -0.34514946
H      -1.81220859      1.89757617      0.59198429
H      -3.14205523     -1.12194976      1.80136395
H      -5.32130779     -1.41661342      0.66348508
H      -5.46746868     -1.23960718     -1.80825722
H      -3.43632059     -0.79570402     -3.14458370
H       0.79807695     -0.55392083      2.95454816
H       0.84735061     -2.30612417      2.95571073
