28
CCCC1(CC)C(=O)NC(=S)NC1=O
C      -3.41211447     -0.91597799      0.00679725
C      -1.89921260     -1.08160186      0.00802293
C      -1.19271323      0.27009482      0.20006903
C       0.35423822      0.18726172      0.19201104
C       0.99330229      1.57847728      0.49273387
C       0.55108796      2.72194951     -0.41400682
C       0.84614937     -0.72014615      1.31465423
O       0.26531511     -0.85423939      2.38951265
N       2.05582426     -1.33277623      1.11129705
C       2.68675677     -1.45967812     -0.08607388
S       4.10296516     -2.31667930     -0.22862854
N       2.09745648     -0.88512961     -1.16768756
C       0.86972114     -0.27603938     -1.16476557
O       0.28104859     -0.07999759     -2.22542764
H      -3.89919259     -1.88659535     -0.12971006
H      -3.76084634     -0.49106422      0.95343210
H      -3.73423161     -0.25735409     -0.80606615
H      -1.59542897     -1.54154739     -0.93832467
H      -1.62569650     -1.77837677      0.80694606
H      -1.53622994      0.94051454     -0.59749502
H      -1.53132764      0.71232009      1.14644896
H       0.77039861      1.86501502      1.52956617
H       2.08785495      1.50842860      0.43315881
H      -0.51329975      2.94283155     -0.29482569
H       1.10226634      3.63237270     -0.15540374
H       0.74923758      2.50402876     -1.46704077
H       2.41577841     -1.86803366      1.89211855
H       2.47089242     -1.11805749     -2.07992191
