29
Nc1ccc(S(=O)(=O)Nc2ccc(Cl)cc2)cc1
N      -3.70898174     -1.90127396     -0.86994088
C      -2.90583539     -0.91612088     -0.28547542
C      -2.89419825      0.38136241     -0.80832749
C      -2.00614284      1.34218140     -0.31814865
C      -1.08613039      0.98460805      0.66961076
S       0.04923014      2.20371203      1.29225302
O       0.51664730      1.76445151      2.58935122
O      -0.56875461      3.50161598      1.11711332
N       1.32186055      2.13814930      0.18080510
C       1.96493335      0.89504128     -0.06597100
C       1.81537023      0.28801666     -1.31442514
C       2.40749419     -0.95340691     -1.56042952
C       3.14727028     -1.57956318     -0.55802958
Cl      3.87329884     -3.10888801     -0.86107012
C       3.30054679     -0.97452860      0.68811394
C       2.70649457      0.26543697      0.93445461
C      -1.06050548     -0.31521550      1.17829739
C      -1.95201449     -1.26623051      0.67589917
H      -4.55865789     -1.54294831     -1.29512374
H      -3.89121059     -2.69639964     -0.26479957
H      -3.58520789      0.65565721     -1.60171858
H      -2.03497083      2.35354450     -0.71628345
H       1.16530388      2.76117552     -0.60961892
H       1.23054759      0.76034435     -2.09874787
H       2.28399101     -1.42772885     -2.53062351
H       3.87814934     -1.45929304      1.47085380
H       2.83330979      0.73471948      1.90764636
H      -0.34343170     -0.60141760      1.94434752
H      -1.89840578     -2.28700164      1.04659057
