72
C=C1CC[C@H](O)C/C1=C/C=C1\CCC[C@@]2(C)[C@H]1CC[C@@H]2[C@H](C)CCCC(C)C
C       4.83505167      0.88862154      2.93727484
C       5.39378068      0.01169415      2.08869698
C       6.04467215     -1.26832925      2.55737386
C       7.49209292     -1.36444356      2.07591026
C       7.59239005     -1.14428674      0.56510203
O       8.97151426     -1.13963615      0.19970558
C       6.92845156      0.17769523      0.15301958
C       5.50042531      0.25957888      0.65207407
C       4.47925118      0.49503979     -0.19716083
C       3.06620205      0.50492818      0.12907540
C       2.04366265      0.80547153     -0.69572750
C       2.16187106      1.23073076     -2.14912190
C       1.26452909      0.39960211     -3.07490875
C      -0.18726285      0.29326225     -2.57990316
C      -0.27208602     -0.18638006     -1.11328928
C       0.19772630     -1.65761003     -1.00871081
C       0.59175931      0.78402178     -0.25703579
C       0.18970515      0.44444707      1.17614195
C      -1.30583611      0.11936471      1.08066507
C      -1.66133509      0.01949807     -0.42928382
C      -2.79648148     -1.00759618     -0.69431959
C      -3.17081904     -1.11294045     -2.17591450
C      -4.07217913     -0.73829706      0.14933627
C      -4.76930859      0.59822486     -0.13079101
C      -5.98089637      0.85242886      0.77659073
C      -7.12629551     -0.17295242      0.67774221
C      -7.68598375     -0.29056317     -0.74015856
C      -8.24825606      0.21244662      1.64625682
H       4.79598850      0.69742465      4.00486476
H       4.40997224      1.82570865      2.58911048
H       5.47050012     -2.12106019      2.17270030
H       6.02570840     -1.34604039      3.65102302
H       7.91245591     -2.34304250      2.33768362
H       8.11304088     -0.62475061      2.59923640
H       7.11376971     -1.98250095      0.04321312
H       9.01811146     -1.02573349     -0.76513923
H       6.98346406      0.27817237     -0.93834861
H       7.50540476      1.02410115      0.55003333
H       4.73128419      0.66422731     -1.24009082
H       2.83460345      0.22378837      1.15331983
H       3.18539218      1.17820979     -2.52779408
H       1.86582197      2.28553163     -2.22090228
H       1.68994250     -0.60477556     -3.18865797
H       1.26864890      0.84789963     -4.07575097
H      -0.72823143     -0.37856898     -3.25159912
H      -0.66193617      1.27828047     -2.67679205
H       1.25581788     -1.77633181     -1.26076327
H      -0.36698160     -2.29865372     -1.69354946
H       0.06436281     -2.06613919     -0.00192068
H       0.22721864      1.81188757     -0.42530926
H       0.37702823      1.27727972      1.86209177
H       0.72773169     -0.42795739      1.56339464
H      -1.90375961      0.90267241      1.55997920
H      -1.50441016     -0.81795666      1.61280876
H      -2.02671444      1.00825342     -0.74114677
H      -2.44232615     -1.99925357     -0.38280046
H      -3.31239699     -0.12638061     -2.62840498
H      -2.39987527     -1.64388535     -2.73941490
H      -4.09698600     -1.68290637     -2.30946886
H      -3.82850720     -0.79945723      1.21638864
H      -4.77515874     -1.55903553     -0.03933148
H      -4.06538813      1.42160760      0.03243721
H      -5.07541295      0.65815626     -1.18022068
H      -5.63140540      0.89571889      1.81654517
H      -6.37265812      1.85175481      0.54485513
H      -6.75606732     -1.15800730      0.98487690
H      -8.54308129     -0.97240836     -0.76388730
H      -8.01826177      0.68215426     -1.11796927
H      -6.93745840     -0.68866998     -1.43185413
H      -9.05377918     -0.52919812      1.62345932
H      -7.87387371      0.26537675      2.67397943
H      -8.67794387      1.18689725      1.39047549
