29
CCC(=O)n1cnc2c1c(=O)n(C)c(=O)n2C
C       4.29474792      0.79911837     -0.78199722
C       2.77802636      0.70515722     -0.67585691
C       2.27709954     -0.63739305     -1.12204634
O       2.95596342     -1.45228742     -1.73967817
N       0.96011540     -1.00379793     -0.78473046
C       0.49673246     -2.30020798     -0.98456532
N      -0.71600339     -2.49853985     -0.52430820
C      -1.08404996     -1.28876682     -0.04594834
C      -0.11542494     -0.33572757     -0.21364545
C      -0.35869405      1.02338361      0.14765212
O       0.39426884      1.94896357     -0.13365612
N      -1.56895527      1.22317515      0.82151115
C      -1.87728616      2.57410367      1.25436314
C      -2.58949106      0.26816711      0.96328157
O      -3.68388991      0.56772493      1.44740678
N      -2.30809804     -1.01952071      0.51961589
C      -3.30572269     -2.07063958      0.63275726
H       4.77975749      0.02758469     -0.17463439
H       4.62698547      0.66910246     -1.81743321
H       4.64009977      1.77760551     -0.43406120
H       2.34526885      1.47283602     -1.32244197
H       2.50954867      0.86907836      0.37161183
H       1.11769036     -3.05472766     -1.45469830
H      -2.47570805      2.55908681      2.17048218
H      -0.96729992      3.15064941      1.44405913
H      -2.45311006      3.06597147      0.46391506
H      -3.57464705     -2.41524186     -0.37079213
H      -2.88678122     -2.90282030      1.20744489
H      -4.21114279     -1.72203764      1.13639273
