47
CCCOC1=CC(=O)C2(Oc3c(Cl)c(OC)cc(OC)c3C2=O)C(C)C1
C       7.30470738      0.10255923     -1.63266154
C       6.28007288      0.70243331     -0.68670333
C       4.94555085     -0.03251005     -0.75480765
O       4.04986460      0.59763383      0.16341881
C       2.76033255      0.11876258      0.26107906
C       2.26740952     -0.93798565     -0.40577832
C       0.85494903     -1.36511925     -0.24117114
O       0.47326556     -2.35978856     -0.85947962
C      -0.06660011     -0.53233287      0.64965813
O      -1.07954942     -1.39510552      1.23437705
C      -2.29337354     -0.99837517      0.73421729
C      -3.50403439     -1.60112155      1.03589728
Cl     -3.54381512     -2.94827040      2.11714397
C      -4.68044242     -1.09137784      0.45343879
O      -5.85036796     -1.72434708      0.79143990
C      -7.04834008     -1.31014461      0.14894809
C      -4.60489797      0.02035211     -0.41433344
C      -3.37616306      0.62611973     -0.71023512
O      -3.19757259      1.70233379     -1.52505468
C      -4.33527051      2.22864735     -2.19474980
C      -2.24693127      0.08591245     -0.11525370
C      -0.85202500      0.45673670     -0.19333318
O      -0.40371807      1.39419565     -0.82862840
C       0.70772305      0.16863567      1.78248810
C       1.12614439     -0.80863622      2.89461673
C       1.93102135      0.92057261      1.23399398
H       8.25074045      0.64846261     -1.56305264
H       6.95837383      0.15399588     -2.66981577
H       7.49886097     -0.94627955     -1.38664492
H       6.12862985      1.76207521     -0.92521371
H       6.66196127      0.67638393      0.34098995
H       4.54157477      0.02947789     -1.77230518
H       5.08814573     -1.08272759     -0.47398142
H       2.84079301     -1.53670377     -1.10109524
H      -7.30446667     -0.28141659      0.42207669
H      -6.97594730     -1.42635838     -0.93741398
H      -7.85719831     -1.95827814      0.49969455
H      -5.51205707      0.41730605     -0.85352566
H      -5.06305689      2.62565055     -1.47959317
H      -4.79192901      1.47759236     -2.84773777
H      -3.99952215      3.05831494     -2.82419636
H       0.04903022      0.90691488      2.26105859
H       1.69150058     -0.28632952      3.67414927
H       1.75249374     -1.62135375      2.51362953
H       0.25066319     -1.25484233      3.37763097
H       2.56183386      1.23970207      2.07386921
H       1.61163630      1.84235497      0.73294978
