47
CCN(CC)C(CNS(=O)(=O)c1ccc(Cl)cc1)c1ccccc1
C      -1.62792889     -0.04070190      3.04792719
C      -2.45665110      0.39528713      1.84249374
N      -1.63798991      0.82731574      0.69385584
C      -2.44360942      1.58588261     -0.27927864
C      -2.74142205      3.00509120      0.19985583
C      -0.84934248     -0.28974861      0.07556394
C       0.32241574      0.25044012     -0.80774549
N       1.04744302      1.29505600     -0.05706434
S       2.33056764      2.07474321     -0.78396697
O       2.10915728      2.08897680     -2.21282609
O       2.56194518      3.28972070     -0.03537237
C       3.67123516      0.96654867     -0.42456154
C       4.20022280      0.15798426     -1.43548396
C       5.26183328     -0.70074836     -1.14195118
C       5.78799677     -0.73911316      0.15066222
Cl      7.09457998     -1.80018685      0.50746656
C       5.26553006      0.07655668      1.15562519
C       4.20414987      0.93714519      0.86883279
C      -1.66397582     -1.37584680     -0.62373352
C      -1.95622549     -2.56907940      0.06134508
C      -2.69354234     -3.58742961     -0.54649896
C      -3.15199751     -3.43188739     -1.85104497
C      -2.87388689     -2.25880788     -2.54685173
C      -2.13609944     -1.23927671     -1.93935619
H      -2.28132835     -0.17756138      3.91632488
H      -1.11377316     -0.99039786      2.87887280
H      -0.88254618      0.71805433      3.30869004
H      -3.16123619     -0.39624269      1.56325983
H      -3.06979623      1.23110185      2.19604396
H      -3.38180513      1.06833494     -0.51323970
H      -1.90130416      1.70420442     -1.22237851
H      -1.81899405      3.53000068      0.47049149
H      -3.22468654      3.57301998     -0.60237323
H      -3.41502439      3.02219018      1.06085941
H      -0.31196488     -0.78301689      0.89610760
H       1.00707851     -0.56787409     -1.05777153
H      -0.05292135      0.67815826     -1.74188263
H       0.45339154      1.89897803      0.51919796
H       3.79697968      0.19148497     -2.44528544
H       5.67637898     -1.33286188     -1.92334596
H       5.68180202      0.04895530      2.15946561
H       3.79841715      1.57857116      1.64849077
H      -1.60943296     -2.71618918      1.08215935
H      -2.90964391     -4.50199062     -0.00012853
H      -3.72644793     -4.22342880     -2.32499158
H      -3.23315253     -2.13493311     -3.56556062
H      -1.94439540     -0.33647922     -2.51358611
