24
Cn1c(=O)c2c(ncn2C)n(C)c1=O
C      -2.49165607     -1.95415231     -0.23851546
N      -1.46113568     -0.93864326     -0.14562318
C      -0.13754449     -1.35640836      0.02148947
O       0.21738165     -2.52902852      0.09574109
C       0.77624603     -0.27077295      0.09872112
C       0.39407173      1.03377416      0.01760533
N       1.45474649      1.88246992      0.11867219
C       2.49737807      1.08861369      0.26321348
N       2.13182342     -0.23161789      0.25690954
C       3.01702983     -1.36038493      0.39225112
N      -0.92118047      1.39476213     -0.14695183
C      -1.28553006      2.79735318     -0.22869421
C      -1.89625515      0.40054798     -0.23392064
O      -3.09205489      0.67027356     -0.38190774
H      -3.21762953     -1.79880499      0.56636700
H      -2.09127867     -2.96812139     -0.16333179
H      -3.01045945     -1.84774492     -1.19691337
H       3.52402950      1.41449185      0.37479535
H       2.72513419     -1.92723411      1.27979267
H       2.93500418     -1.97681487     -0.50637940
H       4.04512865     -1.00618775      0.50321801
H      -0.77106944      3.25107206     -1.08173910
H      -0.97973885      3.30036544      0.69417437
H      -2.36244100      2.93219228     -0.35897401
