36
CCCCCCCCOC(=O)C(C)O
C      -5.40078393     -0.25783583      1.28235047
C      -4.39695589      0.31351100      0.29373838
C      -3.11547923     -0.51863149      0.25279999
C      -2.10795499      0.05961302     -0.74341963
C      -0.82478218     -0.77277349     -0.77912227
C       0.17752735     -0.30109250     -1.83667865
C       0.67638065      1.14081537     -1.68372328
C       1.34173233      1.44312129     -0.34338731
O       2.43435547      0.53752017     -0.14592130
C       3.09677020      0.70451338      1.02988747
O       2.80964751      1.52521066      1.89522886
C       4.22442130     -0.31877031      1.18937597
C       5.16714121     -0.31759735     -0.00187092
O       5.00115165     -0.05283376      2.35962352
H      -5.68208203     -1.27993507      1.00937079
H      -6.30922966      0.35246069      1.29551808
H      -4.98758179     -0.27391900      2.29592935
H      -4.85218605      0.34565475     -0.70296896
H      -4.16174549      1.34616824      0.57658743
H      -2.66588798     -0.55061791      1.25278608
H      -3.35735111     -1.55147259     -0.02608522
H      -1.87796705      1.09284906     -0.46023550
H      -2.55576863      0.08782278     -1.74407032
H      -0.35394347     -0.77473291      0.21069186
H      -1.08158788     -1.81689666     -0.99844925
H      -0.27875536     -0.40425966     -2.82926111
H       1.03726422     -0.98251484     -1.82627797
H      -0.14628686      1.84520570     -1.84861462
H       1.40732100      1.31913205     -2.48272355
H       1.72346222      2.47087461     -0.35642147
H       0.62131174      1.34480452      0.47618603
H       3.76634314     -1.30463225      1.32007574
H       5.99713983     -1.01313599      0.16219965
H       5.60703067      0.67546825     -0.14808389
H       4.65393189     -0.60077004     -0.92596966
H       4.41339721      0.42129980      2.98093521
