18
COCCC(=O)OC
C       3.48442711      0.53345282     -0.04541254
O       2.20952856      0.85428386     -0.58783975
C       1.17305374      0.07495925      0.01266528
C      -0.15051993      0.47390436     -0.61641845
C      -1.28585408     -0.31397240     -0.02450507
O      -1.17794968     -1.16549889      0.84682236
O      -2.45842632      0.06502477     -0.60740895
C      -3.60551180     -0.62753262     -0.11297935
H       3.50736877      0.74278984      1.02837163
H       3.72576992     -0.51767265     -0.23047954
H       4.23501236      1.15649082     -0.53902716
H       1.15591329      0.26085014      1.09333779
H       1.37266727     -0.99012168     -0.15603219
H      -0.33071100      1.54237745     -0.45378842
H      -0.11498753      0.29736008     -1.69721516
H      -3.73752340     -0.43567539      0.95645193
H      -3.51826609     -1.70108955     -0.30735928
H      -4.48399120     -0.24993023     -0.64346787
