30
OC1(c2ccc(Cl)cc2)CCNCC1.[Cl-].[H+]
O      -0.69947908     -0.12108197      1.69644283
C      -0.41159678      0.14385886      0.38300535
C       1.05572579      0.12014342      0.16462501
C       1.71458048      0.98360963     -0.64009747
C       3.07667492      0.80481591     -0.78203903
C       3.77136943     -0.19450032     -0.14747259
Cl      5.51485773     -0.35804307     -0.31021480
C       3.10762467     -1.07512029      0.67445119
C       1.73394384     -0.89462958      0.81513143
C      -1.10591595      1.30012244     -0.21983423
C      -2.60239459      1.10758744      0.00956167
N      -3.12971272     -0.13327363     -0.37239721
C      -2.36140284     -1.28923134      0.01647001
C      -0.94744173     -1.07596844     -0.43644877
Cl      0.00000000      0.00000000      0.00000000
H       0.00000000      0.00000000      0.00000000
H      -0.86099037      0.64875325      2.26336735
H       1.16038997      1.77841627     -1.14194117
H       3.60140324      1.49381082     -1.45335013
H       3.61155117     -1.87964002      1.16140883
H       1.23145039     -1.60420367      1.46934835
H      -0.80505169      2.25704434      0.21812015
H      -0.96094210      1.26917854     -1.31729956
H      -3.10317414      1.89440483     -0.60582137
H      -2.77133072      1.35327838      1.09942823
H      -3.54028349     -0.22092873     -1.31160004
H      -2.79018634     -2.17965889     -0.50536195
H      -2.37313601     -1.50859818      1.09352750
H      -0.24185028     -1.90394499     -0.23307745
H      -0.87468279     -0.71620100     -1.48795069
