27
CC1(C)CC(=O)CC(C)(C#N)C1
C      -1.54309578      0.80044790      1.28109002
C      -1.21079095      0.07097034     -0.03462818
C      -2.40927925      0.27207109     -0.98623323
C      -1.03960126     -1.43330646      0.22948728
C       0.27703268     -1.72447084      0.91100048
O       0.34349582     -2.43164748      1.91366129
C       1.51855970     -1.20605760      0.22610145
C       1.41895905      0.29547977     -0.06992315
C       2.54773134      0.67787455     -1.05116091
C       1.63348219      1.07883303      1.16842128
N       1.81251427      1.70723878      2.12681170
C       0.05748038      0.64989800     -0.72212851
H      -2.53052710      0.50326430      1.65418813
H      -1.55993363      1.88652162      1.13799887
H      -0.83072008      0.57206828      2.07787505
H      -2.57530559      1.33561256     -1.19194371
H      -2.24557670     -0.23144945     -1.94575845
H      -3.33141776     -0.13391678     -0.55490120
H      -1.04987279     -2.00368994     -0.70738958
H      -1.85553444     -1.81651093      0.85360000
H       2.38713919     -1.42947658      0.85812075
H       1.63152673     -1.78376331     -0.69984955
H       2.45998080      0.12755237     -1.99490271
H       2.52509733      1.74884497     -1.28659926
H       3.53544743      0.45690880     -0.62844422
H       0.07563439      0.26963107     -1.75428998
H      -0.04242598      1.74107195     -0.81020365
