40
CC(C)[C@@H]1CC[C@@H](C)C[C@H]1OC(=O)[C@H](C)O
C      -2.24059159     -2.59955436      1.06567212
C      -1.26029993     -1.90810210      0.11085982
C      -1.72157956     -2.11677494     -1.33404675
C      -1.03062749     -0.41537807      0.49873222
C      -2.30333626      0.44729743      0.42002062
C      -2.04450177      1.88518145      0.87062749
C      -0.91043748      2.53653418      0.07293537
C      -0.63923390      3.95227861      0.57821491
C       0.35850676      1.68305509      0.14623569
C       0.10511956      0.24395587     -0.32169019
O       1.30985014     -0.52295434     -0.12627294
C       2.23211772     -0.46541060     -1.12380331
O       2.10921246      0.15508027     -2.17451389
C       3.44747693     -1.34223710     -0.81074088
C       4.05278773     -1.01140137      0.54278117
O       4.46976762     -1.17896610     -1.79653645
H      -2.25647121     -3.67940438      0.88084416
H      -3.26328034     -2.23091891      0.93946306
H      -1.94471837     -2.44723771      2.10877308
H      -0.30216966     -2.43261010      0.22272869
H      -1.82671968     -3.18599980     -1.54997075
H      -2.69177764     -1.64770169     -1.52367377
H      -0.99852168     -1.71556273     -2.04962612
H      -0.70137628     -0.42711003      1.54888107
H      -2.68840956      0.46391723     -0.60622359
H      -3.09274633      0.02775454      1.05229838
H      -2.96524499      2.46955223      0.75480773
H      -1.80012519      1.88853560      1.94071271
H      -1.22081759      2.60727377     -0.97805276
H      -1.53878593      4.57170890      0.49873479
H      -0.32255976      3.94785444      1.62673855
H       0.14983266      4.43038867     -0.01170858
H       0.75280774      1.66915225      1.17145723
H       1.14947485      2.13610358     -0.46426128
H      -0.17405037      0.25301291     -1.38255051
H       3.12489367     -2.38793298     -0.84653190
H       3.34861243     -1.19895891      1.35916794
H       4.95515353     -1.60688226      0.71798172
H       4.35167288      0.04205728      0.58744791
H       4.02109585     -0.88959581     -2.61591276
