32
CCOP(=S)(OCC)SCS(=O)(=O)CC
C      -3.80869358     -2.82067282     -0.06317282
C      -2.66745340     -2.20937824      0.72406943
O      -2.30547576     -0.98242086      0.11115060
P      -0.82631827     -0.35557874      0.38562728
S      -0.49401354     -0.06078415      2.28656881
O      -0.98211384      0.98463543     -0.51686829
C      -1.84702620      2.01908229     -0.07917104
C      -2.14122359      2.92651656     -1.25588675
S       0.50951786     -1.59774530     -0.68071010
C       1.50992445     -0.44014835     -1.64623198
S       2.56494477      0.69850145     -0.75107852
O       1.74520846      1.47554122      0.15563180
O       3.39881822      1.36384520     -1.73620040
C       3.62448473     -0.36180102      0.22350975
C       4.66494195      0.43853854      0.98224107
H      -4.66446020     -2.13822514     -0.09669197
H      -3.50641633     -3.00364854     -1.09969395
H      -4.12835113     -3.76622070      0.38356276
H      -2.98781400     -2.01504392      1.75223117
H      -1.81758909     -2.89817210      0.74294028
H      -2.77950609      1.59790787      0.30918036
H      -1.35406858      2.58852184      0.71424218
H      -2.62283443      2.36520654     -2.06349530
H      -1.21391317      3.34078504     -1.66507557
H      -2.79610715      3.75063862     -0.95962953
H       0.85599898      0.16679556     -2.27923776
H       2.16671748     -1.01635638     -2.30512181
H       2.99594952     -0.91574933      0.92533644
H       4.10814773     -1.06317173     -0.46261088
H       4.19212287      1.15660795      1.65982532
H       5.30927448      0.99930060      0.29793932
H       5.29732687     -0.22730740      1.57697360
