30
CC1(C)[C@H]2CC=C(CCO)[C@@H]1C2
C      -2.55529068     -0.23723675      1.32608319
C      -1.32602669      0.18598214      0.49730915
C      -0.89449830      1.57163547      0.99446611
C      -1.46757673     -0.01147596     -1.07588856
C      -0.36415282      0.64698246     -1.93184202
C       0.99196260      0.31391912     -1.34133841
C       1.09593314     -0.43632055     -0.22461512
C       2.38966760     -0.83753607      0.43096346
C       2.61636899     -0.13510444      1.77070026
O       2.92711716      1.24191600      1.58120089
C      -0.20966469     -0.94203635      0.34210845
C      -1.10980603     -1.51208221     -0.81491333
H      -3.37199755      0.48129976      1.19404101
H      -2.30391087     -0.27137988      2.39215667
H      -2.94780102     -1.22114557      1.05877926
H      -0.04625655      1.99231258      0.45125586
H      -1.71768825      2.28831457      0.89611844
H      -0.60982907      1.52864298      2.05173579
H      -2.46876320      0.16331606     -1.48266041
H      -0.41486864      0.27384055     -2.96059995
H      -0.50162070      1.73287613     -1.96055914
H       1.87352292      0.70351175     -1.84289392
H       3.22833856     -0.61390131     -0.23983555
H       2.38129983     -1.92287936      0.58568165
H       3.46678883     -0.59140966      2.28695746
H       1.74468163     -0.20945130      2.42899973
H       2.21487168      1.62082313      1.03637519
H      -0.08300842     -1.60839664      1.20070487
H      -1.93937043     -2.15220702     -0.49830255
H      -0.59842230     -2.04280964     -1.62603496
