47
CCCN(CCc1cccs1)C1CCc2c(O)cccc2C1
C       1.05990321     -3.22633024     -1.90475019
C       1.47183620     -3.22005281     -0.43891675
C       0.61150344     -2.28267728      0.42350304
N       0.64658383     -0.88061705     -0.02972391
C       1.90762279     -0.21663549      0.36978512
C       2.28262731      0.94649064     -0.56781722
C       3.61018489      1.54561103     -0.19408093
C       4.85898567      1.22841781     -0.69077656
C       5.89178803      2.00892452     -0.09614866
C       5.39693236      2.89703528      0.83209544
S       3.69748340      2.78815909      0.98282831
C      -0.54703547     -0.09301192      0.37645225
C      -0.98363998     -0.25685583      1.84017786
C      -2.08273481      0.75057066      2.18097756
C      -3.19591198      0.82680261      1.16383089
C      -4.41124776      1.46479414      1.46214608
O      -4.66596648      2.05829196      2.66740335
C      -5.44330194      1.53410678      0.52882416
C      -5.27461091      0.98252011     -0.73593508
C      -4.06940824      0.36750436     -1.06496267
C      -3.02088856      0.29509508     -0.13144937
C      -1.74662762     -0.41031730     -0.54359651
H       0.00207506     -3.48597246     -2.01401055
H       1.22634481     -2.25052741     -2.37141253
H       1.64873384     -3.96532085     -2.45744870
H       2.53403978     -2.96564672     -0.36269766
H       1.37153500     -4.23852121     -0.04404529
H       0.92586581     -2.36046692      1.47226344
H      -0.40939255     -2.67870285      0.37944431
H       1.85838864      0.12330929      1.41176577
H       2.73929441     -0.93053493      0.33626563
H       1.51568045      1.72895930     -0.56188283
H       2.33806350      0.57723415     -1.60037281
H       5.02490295      0.47043829     -1.44731831
H       6.94396530      1.92460210     -0.33855217
H       5.95072982      3.60805194      1.42954805
H      -0.32849575      0.97111097      0.21934508
H      -0.14325539     -0.10555089      2.52676940
H      -1.36442609     -1.27070602      2.01778047
H      -2.49190923      0.47584304      3.16053958
H      -1.63788534      1.74947498      2.27259229
H      -3.84436266      2.11792373      3.17704940
H      -6.37700098      2.02463114      0.78949455
H      -6.07856120      1.03524982     -1.46462588
H      -3.94726490     -0.05987040     -2.05836953
H      -1.48804965     -0.11777783     -1.56987603
H      -1.96309303     -1.48505640     -0.55480677
