12
O=c1cc[nH]cc1
O       2.64238722      0.01115409      0.02308870
C       1.41646939      0.00597922      0.01237701
C       0.64199102      1.27701449      0.01505610
C      -0.69443680      1.19136009      0.00278483
N      -1.35986883     -0.00574029     -0.01188346
C      -0.68420033     -1.19717960     -0.01483184
C       0.65291329     -1.27154843     -0.00374081
H       1.19036321      2.20739105      0.02672796
H      -1.32847761      2.07244163      0.00379598
H      -2.37571428     -0.01002840     -0.02075912
H      -1.31066632     -2.08358202     -0.02685679
H       1.20924005     -2.19726183     -0.00575856
