39
CC(C)OP(=O)(OC(C)C)SCc1ccccc1
C      -0.56887168     -2.73348955      0.30753625
C      -0.98773845     -1.69921627     -0.72560257
C      -1.00898033     -2.29391322     -2.12562855
O      -0.04361529     -0.63818985     -0.71578369
P      -0.51114863      0.78520113     -0.11435234
O      -1.09302828      0.66564395      1.26655451
O      -1.62564943      1.22463972     -1.20340538
C      -2.45499642      2.33651157     -0.89657550
C      -2.50492181      3.23739467     -2.12143648
C      -3.83944994      1.81884889     -0.53573030
S       1.06897164      2.13477670     -0.16047192
C       1.95978918      1.78177344      1.36900156
C       2.59530278      0.41708893      1.38588981
C       3.72398924      0.14201854      0.59948173
C       4.31007947     -1.12456023      0.61811482
C       3.77683013     -2.12854121      1.42355250
C       2.65662334     -1.86774615      2.20968977
C       2.06701354     -0.60268888      2.19029033
H      -0.55476358     -2.28950715      1.30827251
H       0.44426685     -3.09998101      0.10936359
H      -1.25461000     -3.58611760      0.31725256
H      -1.98919548     -1.32700155     -0.48088568
H      -1.29447812     -1.53123993     -2.85829942
H      -1.71675028     -3.12551256     -2.19448286
H      -0.01535387     -2.65258365     -2.41646024
H      -2.04385174      2.90250055     -0.05313402
H      -2.88431261      2.69490491     -2.99453043
H      -1.49865430      3.58403167     -2.38045708
H      -3.14027053      4.11106497     -1.94738433
H      -4.26283226      1.22542396     -1.35372947
H      -3.78683549      1.15744837      0.33547699
H      -4.52432301      2.64100735     -0.30716648
H       1.27335608      1.90147750      2.21423409
H       2.74069523      2.53950648      1.50023419
H       4.15047937      0.91457050     -0.03723320
H       5.18187164     -1.32790180      0.00183240
H       4.23252048     -3.11495040      1.43635525
H       2.23665356     -2.65144044      2.83477468
H       1.18618901     -0.42125234      2.80425605
