41
CCOC(=O)C(CC(=O)O)=C(c1ccccc1)c1ccccc1
C       3.66676499      2.32173441      0.69910340
C       3.16719315      1.70236290     -0.59160282
O       2.09250553      0.81543247     -0.27066368
C       1.52293507      0.21438231     -1.34096270
O       1.88006448      0.31454648     -2.50519304
C       0.42965664     -0.69565857     -0.90445702
C       0.61945065     -2.09533078     -1.43931033
C       1.71835133     -2.81252577     -0.69001660
O       2.25439137     -2.48388127      0.35471728
O       2.07241057     -3.96529499     -1.29699773
C      -0.61071065     -0.25324779     -0.15199275
C      -1.61764881     -1.23547035      0.31948909
C      -2.89093899     -1.27157114     -0.26177474
C      -3.83589880     -2.20226578      0.17399911
C      -3.51646746     -3.09638443      1.19576179
C      -2.25400092     -3.06016633      1.78649625
C      -1.30676182     -2.13162003      1.35201424
C      -0.76087242      1.18748074      0.17866502
C      -0.63828578      1.61986241      1.50524685
C      -0.78690329      2.97121356      1.82371316
C      -1.06600775      3.89833927      0.81989752
C      -1.19606259      3.47708330     -0.50256030
C      -1.04717711      2.12641277     -0.82318682
H       4.50373178      2.99972067      0.51025414
H       2.86386021      2.88104462      1.19087516
H       3.99025884      1.54547787      1.40016621
H       3.97680088      1.14271338     -1.07346458
H       2.81026115      2.48929322     -1.26574139
H       0.88859223     -2.05468242     -2.50100477
H      -0.28847646     -2.70092249     -1.36801139
H       2.77768491     -4.33081572     -0.72279832
H      -3.15320161     -0.57760673     -1.05699560
H      -4.82216440     -2.22868866     -0.28310800
H      -4.25447408     -3.81920787      1.53475957
H      -2.00752265     -3.75249219      2.58691531
H      -0.32610893     -2.10844204      1.82442549
H      -0.41530485      0.90850670      2.29667508
H      -0.68447685      3.29889529      2.85450999
H      -1.18267015      4.94996715      1.06867386
H      -1.41564750      4.19951096     -1.28495984
H      -1.15712989      1.81229488     -1.85842646
