68
CCCCCCC(O)CCCCCCCCCCC(=O)OCC(O)CO
C      -8.86177731     -2.30287013     -1.45589154
C      -7.80047114     -1.27579833     -1.09231215
C      -6.52382308     -1.47972657     -1.90843885
C      -5.46520740     -0.39812913     -1.66974555
C      -4.99259383     -0.22705430     -0.22163461
C      -4.34368695     -1.48325663      0.36143027
C      -3.91317977     -1.32799889      1.82606119
O      -3.36508074     -2.57803851      2.24699789
C      -2.90176968     -0.20581872      2.10564968
C      -1.58209555     -0.34765136      1.33636575
C      -0.54419657      0.71345713      1.72320293
C      -0.91188111      2.11799414      1.23363481
C       0.12057043      3.18665749      1.61294057
C       1.16028665      3.49432303      0.52889900
C       2.14595380      2.37666648      0.18098710
C       3.04037120      1.97359369      1.35592397
C       4.01720367      0.84318130      1.01925501
C       5.05436000      1.22714568     -0.03523697
C       6.11414288      0.16302052     -0.19323498
O       6.14215418     -0.91653560      0.38226628
O       7.04446818      0.56931953     -1.10104470
C       8.16619265     -0.31397210     -1.30265731
C       7.84472762     -1.50704982     -2.21533919
O       7.10475655     -2.54248550     -1.54580005
C       7.05450757     -1.10559239     -3.46314686
O       6.87477521     -2.25182109     -4.29666337
H      -9.76036668     -2.14716604     -0.85057458
H      -8.50139778     -3.32070967     -1.27411913
H      -9.14327427     -2.21954343     -2.51066703
H      -8.19879830     -0.26979093     -1.26731884
H      -7.58585468     -1.36246780     -0.02153558
H      -6.10428104     -2.47052619     -1.69991159
H      -6.77599891     -1.47456836     -2.97666702
H      -5.86254505      0.56411656     -2.01737591
H      -4.59652661     -0.61723544     -2.30335483
H      -5.82907838      0.08940685      0.41169218
H      -4.26878884      0.59625619     -0.21003098
H      -5.04552216     -2.32493954      0.31197118
H      -3.48955288     -1.78916627     -0.25514965
H      -4.80815088     -1.15186865      2.43534901
H      -3.16220853     -2.50564676      3.19549120
H      -2.66925373     -0.21180979      3.17861805
H      -3.36609396      0.76193663      1.89153647
H      -1.15052898     -1.33464682      1.54234079
H      -1.76163074     -0.29781553      0.25650591
H       0.41551049      0.41120243      1.29478442
H      -0.41272682      0.71935049      2.81218533
H      -1.86448487      2.40707715      1.69302709
H      -1.07727975      2.11248666      0.14962656
H      -0.42864592      4.12179531      1.78844482
H       0.60395105      2.94519173      2.56579825
H       0.63507587      3.79080741     -0.38805667
H       1.73306263      4.37500037      0.84656636
H       2.77356755      2.74085396     -0.64097954
H       1.60969199      1.50573242     -0.20917885
H       3.60109166      2.84743194      1.70974829
H       2.42164526      1.63649742      2.19462664
H       3.46085185     -0.04182489      0.68571454
H       4.53108866      0.55302626      1.94460255
H       4.57298047      1.36431041     -1.00898901
H       5.55033904      2.15949996      0.25733262
H       8.94632444      0.29590429     -1.77096264
H       8.55195914     -0.64798162     -0.33177165
H       8.78496594     -1.98202554     -2.51797511
H       6.71582260     -2.17310525     -0.72382708
H       6.05578735     -0.73949141     -3.20438194
H       7.57841417     -0.33857043     -4.04111751
H       6.64215213     -2.97854395     -3.68285092
