19
CC(O)c1ccccc1
C      -2.09109003     -1.05181299      0.95470976
C      -1.65195591      0.09142322      0.04976220
O      -2.22130894     -0.10160660     -1.24433717
C      -0.14698125      0.20632054     -0.05693578
C       0.51869784      1.31439716      0.48706084
C       1.90720656      1.42638216      0.39025476
C       2.64574035      0.43335962     -0.25018839
C       1.99787916     -0.67324829     -0.79454260
C       0.61019994     -0.78683878     -0.69862095
H      -3.18402611     -1.08160195      1.02449939
H      -1.77965850     -2.02371380      0.55565204
H      -1.67963750     -0.94488016      1.96355966
H      -2.06872771      1.02831797      0.43686331
H      -1.64620059      0.35887310     -1.87988583
H      -0.03907783      2.09993933      0.99249355
H       2.41328591      2.28904469      0.81615454
H       3.72651578      0.52132075     -0.32396966
H       2.57268308     -1.44928802     -1.29336226
H       0.11645576     -1.65638796     -1.12916740
