51
CC(C)COc1ccc(S(C)(=O)=O)cc1C(=O)N1Cc2cc(C(F)(F)F)cnc2C1
C      -0.63836995      3.38258556     -0.16054500
C      -2.09131424      3.12672021      0.24695290
C      -3.00162406      4.21534747     -0.31783900
C      -2.56995699      1.73981365     -0.20902955
O      -1.74731725      0.74518768      0.40124778
C      -1.98951403     -0.56712911      0.10067916
C      -3.05245382     -1.02235572     -0.68705535
C      -3.23808321     -2.39267522     -0.90767687
C      -2.36457031     -3.31503111     -0.32752941
S      -2.59218744     -5.05490086     -0.60356007
C      -3.33566315     -5.62032717      0.90441411
O      -1.27130552     -5.64181384     -0.71618288
O      -3.56630595     -5.20339027     -1.66798288
C      -1.28664641     -2.88484956      0.44343894
C      -1.10233401     -1.51238879      0.64443595
C       0.03378803     -1.10538421      1.49459369
O      -0.00128326     -1.39806900      2.68668751
N       1.10100920     -0.47507494      0.89722764
C       2.24951051     -0.05409147      1.69125560
C       3.19428273      0.50442160      0.68094128
C       4.44391154      1.06941104      0.84925061
C       5.12379024      1.51269396     -0.29409838
C       6.47421733      2.15709884     -0.22329749
F       7.11786814      1.93164870      0.95570101
F       6.41093503      3.50965217     -0.36140686
F       7.32038159      1.72120644     -1.19710886
C       4.49672608      1.36910345     -1.53591650
N       3.27155188      0.81821718     -1.72016112
C       2.65969040      0.40069792     -0.59810600
C       1.29846243     -0.23891689     -0.53739484
H      -0.32060556      4.38547668      0.14374710
H      -0.50991930      3.30121354     -1.24520052
H       0.03770694      2.66617373      0.31672518
H      -2.13488433      3.16614895      1.34305385
H      -2.68881346      5.20480234      0.03211568
H      -4.03752850      4.06080663      0.00158595
H      -2.98134285      4.22149621     -1.41284295
H      -2.50161384      1.66452286     -1.30157133
H      -3.61110615      1.59941714      0.10636902
H      -3.76272711     -0.33774979     -1.14128931
H      -4.06780308     -2.72571533     -1.52947815
H      -2.65223326     -5.43145227      1.73430025
H      -3.51657760     -6.69334531      0.81064795
H      -4.28167030     -5.09612650      1.05271540
H      -0.59118073     -3.59613320      0.88505634
H       2.67107408     -0.92258180      2.20697931
H       1.92603372      0.70120787      2.41396724
H       4.88449170      1.16479692      1.83822878
H       4.98154854      1.70523465     -2.45130770
H       1.27810636     -1.19365364     -1.07052463
H       0.53184922      0.43805260     -0.91941928
