20
CCCC(C)O[N+](=O)[O-]
C       2.67426518      0.70572141      0.36301253
C       1.54054261     -0.02326623     -0.34233676
C       0.19011359      0.29152929      0.30127502
C      -1.00294539     -0.33654472     -0.43956776
C      -0.98642000     -1.86300289     -0.34854583
O      -2.21973738      0.07939942      0.19131720
N      -2.73833731      1.30360670     -0.29693787
O      -2.09327590      1.89199533     -1.16536567
O      -3.79720848      1.61767220      0.24360327
H       3.63158296      0.46491046     -0.10975722
H       2.53479861      1.79035772      0.31334968
H       2.73236434      0.41403399      1.41652739
H       1.52706409      0.27088245     -1.39806357
H       1.74075628     -1.09912344     -0.30454351
H       0.18744649     -0.03996250      1.34800713
H       0.05821481      1.37978204      0.34460193
H      -0.98605539     -0.08049564     -1.50636666
H      -0.12808888     -2.29405244     -0.87095370
H      -0.96699228     -2.19477507      0.69551874
H      -1.89808795     -2.27866810     -0.79241244
