31
NCC1(CC(=O)O)CCCCC1.[Cl-].[H+]
N       1.82674475      1.72765446     -1.25378212
C       1.28302985      1.34218894     -0.00230308
C       0.26089056      0.23247156     -0.08321044
C       0.92939874     -0.97365992     -0.68938186
C       2.07204347     -1.50010985      0.04936411
O       2.66457863     -2.50288727     -0.46891178
O       2.58514149     -1.05247956      1.22676117
C      -0.86690876      0.62732694     -1.01521638
C      -2.00024559     -0.35716628     -0.93446856
C      -2.59223823     -0.21047055      0.47147469
C      -1.53549153     -0.75799287      1.40078466
C      -0.25770550      0.00221952      1.29737616
Cl      0.00000000      0.00000000      0.00000000
H       0.00000000      0.00000000      0.00000000
H       1.14639571      1.95621580     -1.99475707
H       2.43017756      2.56773730     -1.10898680
H       0.79704975      2.26790882      0.43376297
H       2.11673462      1.13006940      0.68710429
H       0.21493288     -1.80797231     -0.86637071
H       1.32206704     -0.64748171     -1.70013914
H       3.54331325     -1.16324885      1.49414315
H      -0.47596686      0.63201033     -2.04506298
H      -1.29908394      1.61697446     -0.72161497
H      -1.74513050     -1.39348624     -1.14714776
H      -2.78433636      0.02187175     -1.64879617
H      -2.74666755      0.86411580      0.65743145
H      -3.54262283     -0.72694730      0.57833591
H      -1.92979450     -0.58016232      2.44468773
H      -1.44758765     -1.84112934      1.22704173
H       0.46352317     -0.49099624      1.96850962
H      -0.43224168      1.01742554      1.74337220
