31
CCNc1nc(Cl)nc(N(CC)CC)n1
C       4.44653794     -1.44560694      0.10006163
C       3.03036504     -0.92061160      0.27644653
N       2.89252640      0.33835369     -0.43330540
C       1.65571753      0.95681883     -0.29139978
N       1.67544307      2.27345029     -0.29157365
C       0.47189956      2.80688721     -0.16749933
Cl      0.41142060      4.51627128     -0.15732253
N      -0.69100611      2.18927689     -0.03807061
C      -0.60966898      0.86893689     -0.04750108
N      -1.76713747      0.12818921      0.09020774
C      -1.71780138     -1.31914061     -0.06894792
C      -1.39761383     -1.99339124      1.25710488
C      -3.05995636      0.79894170      0.11865235
C      -3.55524018      1.10987506     -1.28663539
N       0.55180265      0.22751794     -0.16786230
H       4.67778434     -1.60274828     -0.95886945
H       4.56761530     -2.39933676      0.62290869
H       5.18076237     -0.73923498      0.50191406
H       2.82874609     -0.78578335      1.34611827
H       2.33015668     -1.66798761     -0.11555803
H       3.59363808      1.04047029     -0.21993559
H      -0.99551026     -1.62208612     -0.83697965
H      -2.68916102     -1.69069879     -0.41856641
H      -1.40035645     -3.08145800      1.13911958
H      -0.41333283     -1.69599896      1.63256364
H      -2.13923406     -1.73076967      2.01897709
H      -3.02504702      1.71605990      0.71936377
H      -3.79357760      0.15278443      0.61684262
H      -3.64191795      0.19785244     -1.88631180
H      -2.87651958      1.79034648     -1.81052051
H      -4.54133459      1.58282036     -1.24342140
