56
CCC(C)n1ncn(-c2ccc(N3CCN(c4ccc(O)cc4)CC3)cc2)c1=O
C       6.53572443     -0.66365076      3.27132072
C       7.27863133     -0.14706847      2.04591857
C       6.61327292     -0.57530606      0.72765830
C       7.48128690     -0.17781091     -0.46775526
N       5.27281317     -0.03228832      0.57266065
N       4.96969970      1.28462169      0.80878958
C       3.75761284      1.40113126      0.36616544
N       3.21174198      0.29185563     -0.18110659
C       1.92007316      0.15653976     -0.74521984
C       1.01072725      1.22035026     -0.75237776
C      -0.27598121      1.08550909     -1.30697452
C      -0.72534558     -0.11588793     -1.86327937
N      -1.98782889     -0.28310740     -2.43026488
C      -2.75020730     -1.49961023     -2.04107711
C      -3.57732699     -1.24795302     -0.75751884
N      -4.49041044     -0.09132527     -0.93436717
C      -5.45669168      0.14343657      0.05787602
C      -5.42517646     -0.45259850      1.32871115
C      -6.41527341     -0.19402437      2.28618130
C      -7.46197220      0.66250928      1.97567238
O      -8.44646592      0.94199347      2.87499506
C      -7.53467766      1.25679709      0.72651375
C      -6.54167508      0.99350043     -0.22196431
C      -3.77430672      1.13960410     -1.36994772
C      -2.89963122      0.86981652     -2.61946030
C       0.20398989     -1.16438423     -1.87469552
C       1.49081716     -1.03933611     -1.32364421
C       4.21085386     -0.66496658     -0.09825188
O       4.23017684     -1.81451532     -0.51327476
H       7.07047548     -0.37864540      4.18294688
H       5.52514176     -0.24872813      3.33291135
H       6.45928473     -1.75544975      3.25119994
H       7.35172990      0.94557961      2.10489384
H       8.30415880     -0.53510499      2.07716975
H       6.52404600     -1.66898464      0.71836867
H       7.60337234      0.90939717     -0.52641256
H       8.47603345     -0.62960107     -0.39605323
H       7.02685033     -0.51012848     -1.40757757
H       3.18993965      2.33591182      0.41138870
H       1.25568682      2.19026527     -0.33197409
H      -0.91626034      1.96106925     -1.27049718
H      -3.43337075     -1.74809851     -2.86375757
H      -2.11561614     -2.37961251     -1.89937350
H      -4.15686649     -2.15494348     -0.54692884
H      -2.89399122     -1.06535370      0.08161045
H      -4.61860409     -1.12098691      1.61317803
H      -6.34606976     -0.66975149      3.25898748
H      -8.27218940      0.44228417      3.68909678
H      -8.36308134      1.91463358      0.48179491
H      -6.63968528      1.44228421     -1.20711036
H      -3.15025616      1.50123450     -0.54349414
H      -4.47459114      1.94139908     -1.62915111
H      -3.56458832      0.62999219     -3.46001337
H      -2.35897842      1.77296301     -2.92419764
H      -0.04238800     -2.10909293     -2.35420028
H       2.13536694     -1.91169832     -1.38408823
