33
C=CCn1c(=O)n(CC=C)c(=O)n(CC=C)c1=O
C      -1.98763875      3.78320778      0.96926154
C      -1.01933575      3.32591839      0.16420423
C      -1.22533860      2.30373571     -0.92029840
N      -0.62699729      1.04450437     -0.50195953
C       0.71156750      0.84080787     -0.76527682
O       1.38697739      1.67765570     -1.37010112
N       1.24728816     -0.35026745     -0.32191472
C       2.66605084     -0.58937861     -0.54209310
C       3.43502849     -0.13174415      0.66745362
C       4.19811053      0.96861702      0.70956388
C       0.51784369     -1.32019847      0.33358432
O       1.04174947     -2.36182448      0.73717127
N      -0.82307643     -1.05570799      0.51857085
C      -1.63837875     -2.06649584      1.17590144
C      -2.27215311     -2.94166000      0.12892431
C      -1.90376803     -4.20363784     -0.12907069
C      -1.43402881      0.11498042      0.11999262
O      -2.63889403      0.31009891      0.30045830
H      -3.00774107      3.41538240      0.89845532
H      -1.77512021      4.53043826      1.72769436
H      -0.01099835      3.72217238      0.27008933
H      -2.29129405      2.16908699     -1.13678635
H      -0.75902812      2.66127288     -1.84540249
H       3.00581340     -0.06848876     -1.44465479
H       2.85260112     -1.65704012     -0.70509998
H       3.36946707     -0.76512526      1.55026643
H       4.29219602      1.62898414     -0.14836074
H       4.73730906      1.23876830      1.61232649
H      -2.42511978     -1.59335965      1.77459519
H      -1.02941142     -2.65930482      1.86804515
H      -3.09925247     -2.50640936     -0.42899155
H      -2.41011203     -4.78739600     -0.89166657
H      -1.08431567     -4.67759272      0.40470057
