19
O=C(O)COc1cccc(Cl)c1Cl
O       3.41010198      1.82422911      0.26550512
C       3.20987444      0.69510262     -0.14794897
O       4.24705037     -0.05308313     -0.58865547
C       1.89178173     -0.05045013     -0.25192316
O       0.82165180      0.75872325      0.21735104
C      -0.44618287      0.23410414      0.19269597
C      -0.75349862     -1.05288238     -0.26728612
C      -2.07222444     -1.51291390     -0.25940867
C      -3.09623026     -0.69277969      0.20757362
C      -2.80702005      0.59340980      0.66982653
Cl     -4.13560144      1.54810404      1.23289355
C      -1.48491491      1.06277460      0.66512317
Cl     -1.11174059      2.66065204      1.23741806
H       5.02130800      0.53802762     -0.46762613
H       1.97755660     -0.95228326      0.36472096
H       1.73904951     -0.29724990     -1.30865092
H       0.00998101     -1.72853551     -0.64058273
H      -2.30115155     -2.51414172     -0.61870267
H      -4.11979070     -1.06080761      0.20939333
