27
O=C1C=CC(=NNc2ccc([N+](=O)[O-])cc2)C=C1
O       6.24534537     -0.65292910      0.35873947
C       5.03779751     -0.58552292      0.17416370
C       4.21867335      0.44709427      0.83416040
C       2.90279646      0.54168656      0.61879005
C       2.19208734     -0.38834817     -0.30249642
N       0.92698366     -0.36895771     -0.59857100
N       0.17428264      0.63422184     -0.06372103
C      -1.23317734      0.48817857     -0.14607718
C      -1.84391403     -0.76405552     -0.31459889
C      -3.23646912     -0.89632306     -0.31803857
C      -4.03378072      0.23592800     -0.12373050
N      -5.49603412      0.10739212     -0.12342277
O      -5.97726838     -1.02087025     -0.30049298
O      -6.16461400      1.13619506      0.05347974
C      -3.44624642      1.48957063      0.08249564
C      -2.05169095      1.60535403      0.08275870
C       3.02708753     -1.44515345     -0.92867053
C       4.34222225     -1.53478590     -0.71205767
H       4.74183381      1.11578619      1.50706996
H       2.31624903      1.29369228      1.13083759
H       0.45335790      1.57956236     -0.33103622
H      -1.22898066     -1.65176844     -0.44807275
H      -3.67274464     -1.88178668     -0.46509800
H      -4.05177972      2.37755532      0.25121861
H      -1.60766284      2.58120816      0.26512509
H       2.51341841     -2.14156051     -1.58243136
H       4.95222766     -2.30136368     -1.17397264
