28
CO[Si](CCCN=C=O)(OC)OC
C      -1.37428790      2.32058178     -1.05117225
O      -1.43540420      1.56491505      0.14747509
Si     -1.08131610     -0.06405605      0.08257370
C       0.77181010     -0.33257037     -0.23129122
C       1.69610266      0.35992973      0.77886866
C       3.17376207      0.07963107      0.50193978
N       3.55383937      0.71209925     -0.76784468
C       4.67250933      0.52683354     -1.06879813
O       5.79404264      0.33399433     -1.36176950
O      -1.51966297     -0.75876431      1.53529854
C      -2.77312474     -0.40470434      2.09840802
O      -1.99643163     -0.75360705     -1.12990498
C      -2.01632878     -2.16665248     -1.24957211
H      -2.11223778      1.97064033     -1.78172101
H      -1.61219221      3.36092770     -0.80800652
H      -0.36905951      2.30021610     -1.48706211
H       0.96350816     -1.41175618     -0.22198330
H       0.99009203      0.02371342     -1.24426251
H       1.46100123      0.01101000      1.79248190
H       1.52104704      1.44354470      0.76728076
H       3.34675444     -1.00453465      0.47253461
H       3.76936662      0.49577160      1.32545887
H      -3.60010148     -0.63180874      1.41586946
H      -2.91590534     -0.99916188      3.00632827
H      -2.79556859      0.65281454      2.38450787
H      -1.01603635     -2.56516374     -1.45244562
H      -2.65761165     -2.42549470     -2.09798695
H      -2.43856645     -2.63834866     -0.35520462
