22
C=C(C)C(=O)C(=CC(=O)O)OC
C      -0.14984130     -1.25137877      1.73128822
C      -0.97775717     -0.76266184      0.79260046
C      -2.38670796     -1.25443397      0.63585009
C      -0.57738854      0.31226875     -0.17730073
O      -1.40295289      0.88694339     -0.88264081
C       0.86147119      0.71903519     -0.22558317
C       1.70224752      0.13187252     -1.08822704
C       1.33343635     -0.94937172     -2.00710158
O       0.33497201     -1.63930341     -1.99991764
O       2.30923429     -1.12461695     -2.91354894
O       1.34559047      1.73163087      0.59625283
C       0.37109591      2.71270983      0.94671619
H       0.86863423     -0.90331411      1.86622389
H      -0.48039089     -2.03176011      2.41101381
H      -3.09941099     -0.44227422      0.81336423
H      -2.54585953     -1.64549172     -0.37460900
H      -2.62011318     -2.05920840      1.34120977
H       2.73328087      0.46264011     -1.13769619
H       1.97311228     -1.84878548     -3.48255990
H      -0.08629703      3.15111085      0.05353375
H       0.88358700      3.51243926      1.48972528
H      -0.38994267      2.29194993      1.61140647
