30
CCOC(=O)c1[nH]c(C=O)c(CC)c1C
C       4.56877767      0.96078147      0.42203972
C       4.05967608     -0.07315443     -0.56465755
O       2.64716956      0.08370301     -0.76152245
C       1.84961196     -0.57279691      0.13094942
O       2.25562619     -1.25961688      1.05844774
C       0.46131965     -0.32317780     -0.19591373
N       0.05374229      0.45107301     -1.25487777
C      -1.31406939      0.51180495     -1.32772910
C      -1.98815073      1.27351261     -2.35103863
O      -1.40074112      1.90511960     -3.22524720
C      -1.82054732     -0.25473769     -0.28715938
C      -3.26839032     -0.49335360      0.02696085
C      -3.82465664      0.53399557      1.00071553
C      -0.69215983     -0.77442789      0.43931625
C      -0.72827541     -1.64363829      1.65300387
H       4.31414437      1.97117175      0.08555028
H       5.65433994      0.88888540      0.53351931
H       4.10697084      0.82697532      1.40533706
H       4.53661178      0.08215595     -1.53797731
H       4.30849513     -1.09149522     -0.24465548
H       0.68093448      0.91951669     -1.89882751
H      -3.09033857      1.27026551     -2.31711014
H      -3.85855505     -0.47315035     -0.89669414
H      -3.39882105     -1.49916675      0.44240321
H      -4.87997035      0.32919740      1.20653625
H      -3.74812066      1.54767696      0.59299084
H      -3.28235246      0.51346643      1.95200750
H      -1.74356824     -1.76451101      2.04026821
H      -0.33538310     -2.63813131      1.41853433
H      -0.12331972     -1.20794351      2.45483002
