9
O=[Si]([O-])[O-].O=[Si]([O-])[O-].[Ti+4]
O      -0.07872351      1.59383038     -0.04652439
Si      0.00707186      0.03730459      0.13158808
O      -1.46691645     -0.87337845     -0.04139159
O       1.53856810     -0.75775651     -0.04367210
O      -0.12888006      1.59235657     -0.04730537
Si      0.00130655      0.03512187      0.13423754
O       1.55460286     -0.70637238     -0.04405986
O      -1.42702936     -0.92110606     -0.04287231
Ti      0.00000000      0.00000000      0.00000000
