46
C[C@]12CC[C@H]3[C@@H](CCC4=CC(=O)C=C[C@@]43C)[C@@H]1CCC(=O)O2
C       2.77657705      1.46727396      0.44606868
C       2.39982341      0.35128944     -0.54928392
C       1.62703273      0.95061248     -1.73396641
C       0.22632321      1.42459351     -1.35135800
C      -0.61519037      0.30566495     -0.69506337
C       0.16100707     -0.32509765      0.51077709
C      -0.65335200     -1.47304982      1.13886202
C      -2.06432932     -1.04532716      1.52749451
C      -2.77384845     -0.44394529      0.34500320
C      -3.92143163     -0.98530045     -0.10136365
C      -4.61360649     -0.46909389     -1.29895627
O      -5.66543028     -0.95929398     -1.68879730
C      -3.97923508      0.65481860     -2.01107031
C      -2.83733042      1.19616232     -1.56614252
C      -2.07984191      0.74956219     -0.31916432
C      -2.10183246      1.95315929      0.64964549
C       1.56729612     -0.80024878      0.05056060
C       2.39922033     -1.49065840      1.13005846
C       3.72308709     -1.96340363      0.55234677
C       4.42322425     -1.00025297     -0.37236571
O       5.63354794     -1.06228214     -0.56480961
O       3.64394043     -0.15643744     -1.08770229
H       3.45057686      1.10590223      1.22944619
H       3.32906734      2.26287778     -0.06859725
H       1.90873662      1.92196803      0.92971599
H       2.19201055      1.78233301     -2.17437916
H       1.55094576      0.20296299     -2.53547977
H       0.30621819      2.28699338     -0.68162144
H      -0.25816645      1.78300973     -2.26535035
H      -0.71091132     -0.48901006     -1.45338626
H       0.29211377      0.43769643      1.28742749
H      -0.15849312     -1.83972091      2.04460496
H      -0.70458468     -2.31656822      0.43801180
H      -2.02717566     -0.32054775      2.34872387
H      -2.60367691     -1.91803166      1.91587804
H      -4.39493120     -1.83730893      0.37323869
H      -4.49206720      1.01720127     -2.89370543
H      -2.43984821      2.04280254     -2.12132828
H      -1.49224272      1.78612734      1.54281463
H      -3.12261528      2.16644969      0.99245026
H      -1.73051796      2.86801065      0.17338309
H       1.41493275     -1.55122011     -0.74063084
H       1.88013107     -2.36657923      1.53272591
H       2.57196733     -0.81804808      1.97753042
H       3.56021184     -2.88366807     -0.02166294
H       4.40266744     -2.20237718      1.37814963
