30
CCC(O)CNCC(O)CC
C       4.58178497     -0.17962614      0.53578508
C       3.19260658      0.15487547      0.00660549
C       2.34611738     -1.10297610     -0.21776422
O       2.10133670     -1.73495621      1.04197528
C       0.98940130     -0.80588895     -0.89502839
N       0.09668537     -0.04038850     -0.00020778
C      -1.21362247      0.17235504     -0.65249119
C      -2.13095794      0.98191932      0.28699526
O      -2.27115111      0.28316671      1.52609167
C      -3.51708949      1.26437353     -0.29914203
C      -4.34520494      0.01969529     -0.59118657
H       5.16693821      0.73661216      0.66367987
H       4.52777851     -0.68272767      1.50626183
H       5.11975742     -0.83066176     -0.16063473
H       2.70961619      0.81713780      0.73427687
H       3.29456062      0.70789122     -0.93402771
H       2.90145972     -1.81397568     -0.83989708
H       1.27094676     -1.33703954      1.37117984
H       0.50948885     -1.76577803     -1.12193818
H       1.15101803     -0.26948232     -1.83710485
H       0.51811962      0.87338775      0.18182347
H      -1.09045615      0.70497251     -1.60226028
H      -1.65894458     -0.80908105     -0.84858909
H      -1.65381166      1.94302942      0.51534734
H      -1.40162912     -0.13527452      1.68234461
H      -4.07994936      1.87508341      0.41772462
H      -3.41611013      1.85388183     -1.21768729
H      -5.34470173      0.30853509     -0.93253795
H      -3.89114620     -0.58735616     -1.37967381
H      -4.46284133     -0.60170392      0.30177365
