55
Cl.Oc1ccc2c3c1O[C@H]1[C@@H](O)CC[C@@]4(O)[C@@H](C2)N(CC2CCC2)CC[C@]314
Cl      0.68519849      0.00000000      0.00000000
O       4.51293759      2.71403725      1.59367041
C       3.27006414      2.10439970      1.58347062
C       2.37514849      2.27210643      2.63135448
C       1.13686988      1.63700880      2.57355232
C       0.80000369      0.85149725      1.49085657
C       1.72212741      0.73430708      0.50648733
C       2.95018934      1.31792871      0.48584242
O       3.57314361      0.93590213     -0.69964292
C       2.98992205     -0.33387472     -1.08987430
C       3.60762868     -1.37222136     -0.20435694
O       3.82285203     -0.91338923      1.09457074
C       2.69212215     -2.58343150     -0.09374458
C       1.40494859     -2.11447530      0.55160097
C       0.70441824     -1.21767283     -0.41827727
O       0.42082814     -1.95717195     -1.55951764
C      -0.60364348     -0.66309102      0.09098346
C      -0.47926550      0.14324898      1.35486410
N      -1.25120592      0.11520038     -0.88115830
C      -2.52499452     -0.26291484     -1.32035259
C      -3.62940218     -0.14667670     -0.33093289
C      -4.95182390     -0.59604716     -0.96828376
C      -5.61563262      0.46454937     -0.11392982
C      -4.26278293      1.19115302     -0.12863352
C      -0.52360879      1.04633024     -1.62634336
C       0.93204410      0.82411761     -1.77836585
C       1.56006826     -0.04061026     -0.74158010
H      -0.68519849      0.00000000      0.00000000
H       4.83235081      3.30336862      2.35018200
H       2.64912569      2.89223767      3.47822042
H       0.42184929      1.74431716      3.36772575
H       3.12895691     -0.55551885     -2.14150333
H       4.59270852     -1.65070993     -0.63384323
H       3.76243258     -1.67282724      1.72633362
H       2.44455685     -2.88306914     -1.13576673
H       3.18579719     -3.38024552      0.48396957
H       1.67766732     -1.58634574      1.48795150
H       0.81752166     -3.03326269      0.77196594
H      -0.37481562     -2.50591033     -1.35048350
H      -1.24340149     -1.56258461      0.32417380
H      -0.60354822     -0.51821920      2.25203968
H      -1.28594585      0.89959675      1.39306152
H      -2.80273201      0.40199829     -2.19258720
H      -2.50696435     -1.29123604     -1.76750043
H      -3.51490988     -0.69561191      0.62001094
H      -5.22988455     -1.63813661     -0.74001539
H      -4.97627162     -0.38289042     -2.07362691
H      -5.88023132      0.05559357      0.87984491
H      -6.40670825      1.02362474     -0.64250113
H      -4.09264205      1.61627611      0.90176488
H      -4.18031896      1.92747760     -0.92943697
H      -0.96323633      1.09025481     -2.66764038
H      -0.72723725      2.07872532     -1.21787212
H       1.45759065      1.80450868     -1.76705171
H       1.18533371      0.36837883     -2.77967509
