13
N#CS.N=C(N)N
N       1.74408295     -0.35932596      0.01454506
C       0.67597699      0.09075128      0.00116004
S      -0.88892489      0.72168958     -0.01789631
N       0.35519514     -1.37617760      0.42880299
C      -0.00747987     -0.21599096      0.03561833
N       0.76237407      0.66479511     -0.62127240
N      -1.24965352      0.24279464      0.25133367
H      -1.53113505     -0.45311491      0.00219121
H       1.32356888     -1.54665946      0.15267888
H       0.55726402      1.62352019     -0.36188118
H       1.75605244      0.48111967     -0.56596431
H      -1.82882839     -0.50940930      0.61387005
H      -1.66849278      0.63600771     -0.58238003
