27
O=C1c2ccccc2C(=O)c2c(O)c(O)cc(O)c21
O       0.69484325      2.66058956      0.35465643
C       0.52907898      1.45581603      0.18737889
C       1.68319575      0.55610897      0.00514930
C       2.98237379      1.07835721      0.02262412
C       4.07713439      0.22959163     -0.14956059
C       3.87805307     -1.13786643     -0.33894229
C       2.58369166     -1.66007111     -0.35660708
C       1.48474286     -0.80959249     -0.18399281
C       0.11908650     -1.36385868     -0.20311717
O      -0.07137691     -2.56543886     -0.36881845
C      -1.03755986     -0.46690657     -0.02116703
C      -2.34006086     -0.98068045     -0.03725285
O      -2.63184703     -2.31056131     -0.21702667
C      -3.42845791     -0.12757491      0.13526918
O      -4.69684975     -0.63312092      0.11884713
C      -3.24661661      1.23393122      0.32454264
C      -1.95192610      1.74763921      0.34096817
O      -1.83917709      3.09915355      0.53188887
C      -0.84097319      0.90387718      0.16878932
H       3.14774950      2.14442142      0.16979061
H       5.08653517      0.63575422     -0.13592763
H       4.73229033     -1.79840732     -0.47304083
H       2.43821729     -2.72876102     -0.50505067
H      -1.77958115     -2.79455162     -0.32543974
H      -4.58550107     -1.59507160     -0.02565985
H      -4.10261773      1.88909538      0.45794239
H      -0.88444725      3.33812771      0.52375663
