17
O=[N+]([O-])c1cc(C(F)(F)F)ccc1Cl
O      -3.09867442     -1.15441903      1.28378258
N      -2.37798082     -1.35755584      0.29922313
O      -2.45678493     -2.31911567     -0.47587808
C      -1.30547269     -0.42011873      0.06277459
C       0.00830452     -0.86153798      0.28342087
C       1.07926695      0.02144182      0.07718877
C       2.50638592     -0.43355737      0.28753400
F       3.33218305      0.57451669      0.67883433
F       3.05043995     -0.95227302     -0.84517929
F       2.61653818     -1.40016218      1.23885844
C       0.80275179      1.32671461     -0.36504146
C      -0.51531386      1.74784951     -0.58717293
C      -1.58363572      0.87319502     -0.37464082
Cl     -3.17613975      1.44648649     -0.70290591
H       0.19637743     -1.88309988      0.61500792
H       1.61972023      2.02761989     -0.54242639
H      -0.69796586      2.76401567     -0.93337974
