23
Clc1cc(Cl)c(Oc2c(Cl)cccc2Cl)cc1Cl
Cl      4.98971744      0.82305582      1.70857815
C       3.52456753      0.36322878      0.91713518
C       3.43430396     -0.94082128      0.42575975
C       2.27081015     -1.36270345     -0.22028494
Cl      2.20869748     -2.98376622     -0.81281621
C       1.18417577     -0.48954436     -0.36996657
O       0.07061221     -0.96628834     -1.03386530
C      -1.15887148     -0.47025475     -0.66271394
C      -1.84244841      0.37527149     -1.54623263
Cl     -1.14420947      0.85560351     -3.05083383
C      -3.10814072      0.86649972     -1.21658729
C      -3.70642157      0.50115628     -0.01083461
C      -3.04319574     -0.36305057      0.86111337
C      -1.77659242     -0.85698523      0.53427680
Cl     -1.03037836     -1.95671010      1.63721994
C       1.28589791      0.82340018      0.10616588
C       2.45130282      1.24703625      0.75433179
Cl      2.50117288      2.87724437      1.32555675
H       4.26866344     -1.62794450      0.54520761
H      -3.63493113      1.53104506     -1.89793931
H      -4.69351759      0.88066882      0.24465015
H      -3.52391985     -0.65686580      1.79192699
H       0.47270517      1.53072433     -0.02984773
