30
CCc1nc(N)nc(N)c1-c1ccc(Cl)cc1
C      -1.65976927     -2.06298747     -1.24254407
C      -1.25746712     -0.67362142     -1.71397379
C      -1.27733126      0.32928673     -0.58545734
N      -2.46406790      0.95897115     -0.41223003
C      -2.55738408      1.83128994      0.59024445
N      -3.77220522      2.45818350      0.77422881
N      -1.58304136      2.10649523      1.45394783
C      -0.41179788      1.48086572      1.26531940
N       0.56973736      1.78556882      2.21590935
C      -0.18134877      0.55652419      0.24483349
C       1.11636074     -0.11177598      0.07526412
C       1.48966509     -1.17820182      0.90975526
C       2.72586321     -1.81126108      0.75345294
C       3.60315016     -1.37959574     -0.23781193
Cl      5.12488679     -2.15748506     -0.43182888
C       3.25679825     -0.31900513     -1.07140017
C       2.02030396      0.31338957     -0.91331260
H      -1.66573438     -2.76078638     -2.08588546
H      -2.66235148     -2.05618004     -0.80135164
H      -0.96597924     -2.44947292     -0.48951585
H      -1.96276948     -0.34492475     -2.48791569
H      -0.27910535     -0.70587076     -2.20289774
H      -4.50586157      1.89376351      0.36930253
H      -3.87297854      2.72255017      1.74390707
H       1.45168317      2.03518264      1.78239825
H       0.20359631      2.52739099      2.80677685
H       0.81555571     -1.51784401      1.69497882
H       2.99587888     -2.63443478      1.40963071
H       3.94195576      0.02086653     -1.84361887
H       1.76375751      1.14311866     -1.57020582
