42
C=CC1CN2CCC1CC2C(=O)c1ccnc2ccccc12
C      -5.68678307      0.94817818     -0.58936868
C      -4.69256967      0.07749048     -0.37159703
C      -3.24439127      0.47372457     -0.20606597
C      -2.32575747     -0.23919460     -1.23431860
N      -1.16450820     -0.90271431     -0.58529027
C      -1.69987961     -1.94024848      0.33066795
C      -2.57518661     -1.33577284      1.43722072
C      -2.70709217      0.18047441      1.21760141
C      -1.28241336      0.76303541      1.29541272
C      -0.40693411      0.12793504      0.19163437
C       0.88913898     -0.47676827      0.76209768
O       0.96314849     -1.01715723      1.86400951
C       2.10980585     -0.38556199     -0.07938603
C       2.05669542     -0.91111181     -1.36891351
C       3.18915619     -0.81343107     -2.14420347
N       4.33338332     -0.23709729     -1.72508811
C       4.38606371      0.25994468     -0.47719196
C       5.57127865      0.84824636     -0.05567908
C       5.71331149      1.39663075      1.22062324
C       4.64620251      1.35986115      2.10548462
C       3.44476258      0.77595698      1.70728369
C       3.29321338      0.21506203      0.41299558
H      -6.71069092      0.60400553     -0.70246604
H      -5.50978841      2.01716918     -0.65657938
H      -4.93479980     -0.98224657     -0.31494391
H      -3.15839930      1.55639603     -0.37794181
H      -2.87662924     -0.97837101     -1.83070608
H      -1.95567876      0.49499068     -1.96213784
H      -2.28593168     -2.66617959     -0.24796641
H      -0.88480492     -2.52765905      0.76834349
H      -2.12041020     -1.53002507      2.41641732
H      -3.55917325     -1.81703279      1.44577442
H      -3.34456331      0.63065671      1.98676165
H      -1.32572163      1.84931969      1.14545467
H      -0.87125645      0.60383824      2.29876379
H      -0.09883671      0.93019462     -0.49364783
H       1.16987684     -1.39749480     -1.75949061
H       3.21328799     -1.20840564     -3.15613181
H       6.41307222      0.87976604     -0.74424205
H       6.65756038      1.84586661      1.51678227
H       4.74588589      1.77729304      3.10421535
H       2.62635627      0.75043600      2.42452035
