20
O=C1C(Cl)=C(Cl)C(=O)N1c1ccc(F)cc1
O       1.46023720      2.28802177      0.58081948
C       1.78824290      1.13566132      0.34924727
C       3.19762765      0.71960002      0.29465716
Cl      4.48951546      1.78489930      0.54459011
C       3.23398195     -0.57508282      0.02701862
Cl      4.58402935     -1.58101871     -0.15121665
C       1.84972557     -1.05391654     -0.10338495
O       1.58680858     -2.21955503     -0.35099214
N       1.01893196      0.02289547      0.10121903
C      -0.41349562     -0.00929094      0.06234658
C      -1.18561552      1.14724528      0.28480083
C      -2.58659469      1.11754456      0.24715167
C      -3.24200450     -0.07284753     -0.01441041
F      -4.57965133     -0.10290460     -0.05070959
C      -2.52061159     -1.23230277     -0.23861066
C      -1.11973230     -1.19904570     -0.20022620
H      -0.73708254      2.11357543      0.49525311
H      -3.16211845      2.02172176      0.42169820
H      -3.04466340     -2.16118747     -0.44299621
H      -0.61753066     -2.14401279     -0.38487866
