22
O=C([O-])CN(CC(=O)[O-])CC(=O)[O-].[Na+].[Na+].[Na+]
O       3.02717216     -0.71973439     -1.48005602
C       2.56738625     -0.32639430     -0.36119107
O       3.19355082      0.34605885      0.52451491
C       1.14435696     -0.84684820      0.05504836
N      -0.02528476     -0.01202131     -0.41027461
C       0.17018220      1.41365264      0.04884928
C      -1.03041704      2.39138599     -0.21904306
O      -1.81516306      2.59029514      0.76752917
O      -1.05028973      2.99665794     -1.33762794
C      -1.29597063     -0.55797094      0.19703464
C      -1.57609322     -2.08360473     -0.05420316
O      -2.21884125     -2.39207112     -1.10763169
O      -1.24372747     -2.87232006      0.89246562
Na      0.00000000      0.00000000      0.00000000
Na      0.00000000      0.00000000      0.00000000
Na      0.00000000      0.00000000      0.00000000
H       1.05213126     -1.85375128     -0.36878786
H       1.12675920     -0.94429973      1.14850217
H       1.03329738      1.83993359     -0.47585375
H       0.39111757      1.43661013      1.12408873
H      -1.29879666     -0.38807233      1.28173522
H      -2.15136999     -0.01750589     -0.22509894
