26
CC(C)CC(C)(C)C
C       2.70923224     -0.72541898     -0.55921295
C       1.36980435      0.01978571     -0.64864908
C       1.60342201      1.49780665     -0.34779959
C       0.34958630     -0.66491575      0.28976426
C      -1.13287899     -0.18979798      0.28622098
C      -1.98250947     -1.30479115      0.93887089
C      -1.65997620      0.04326614     -1.13724663
C      -1.33253826      1.08242378      1.12826162
H       3.12924095     -0.66730170      0.45083121
H       3.43991654     -0.29999807     -1.25554660
H       2.58624733     -1.78290196     -0.81639829
H       1.02382815     -0.07166876     -1.68508900
H       0.75378796      2.10538085     -0.66774773
H       2.47544432      1.87592574     -0.89310706
H       1.77639347      1.66678772      0.71999750
H       0.73100884     -0.62653985      1.31978654
H       0.35219306     -1.73153637      0.02120565
H      -3.04047688     -1.02272359      0.98935368
H      -1.64375854     -1.51230816      1.96033518
H      -1.91886890     -2.23845534      0.36840216
H      -1.50962754     -0.84323535     -1.76337230
H      -2.73347335      0.26489566     -1.12887120
H      -1.16128193      0.88843045     -1.62207317
H      -0.90484337      0.96557146      2.13021633
H      -2.39885174      1.30708707      1.25095757
H      -0.88102035      1.96423175      0.67091003
