50
CCCn1c(=O)c2[nH]c(C(C3CC3)C3CC3)nc2n(CCC)c1=O
C       5.10542907     -1.26966774      1.72822134
C       4.62664684     -2.46762595      0.92216232
C       4.03343517     -2.08712951     -0.43933625
N       2.78924751     -1.33136227     -0.33071068
C       1.62242245     -2.06514168     -0.08753472
O       1.57452155     -3.28485209      0.03866917
C       0.46852976     -1.24959235     -0.00160352
N      -0.83714343     -1.57970094      0.20574497
C      -1.55722590     -0.40416998      0.19225043
C      -3.05429175     -0.37763362      0.38809499
C      -3.76802832      0.21126259     -0.81247162
C      -4.04325473     -0.63275558     -2.03416500
C      -5.18130247     -0.19352172     -1.15591108
C      -3.44291290      0.37806143      1.64315405
C      -3.38040459     -0.29166442      2.99529620
C      -4.71322367      0.04932386      2.38972836
N      -0.75858998      0.63422715     -0.00903646
C       0.48792208      0.10157931     -0.12578564
N       1.65852245      0.78604913     -0.34497994
C       1.65593136      2.23567734     -0.51055134
C       1.44653437      2.63784136     -1.97073846
C       1.44934747      4.14833123     -2.13734005
C       2.85390195      0.07158233     -0.47747196
O       3.92127772      0.64623433     -0.71213801
H       5.58766825     -1.60674279      2.65140439
H       5.83377078     -0.68040755      1.16235795
H       4.27229210     -0.61795102      2.00787944
H       3.89494162     -3.02782931      1.51527309
H       5.47911938     -3.13642944      0.75407710
H       4.77304952     -1.52862480     -1.02375535
H       3.82768009     -3.00799700     -0.99899606
H      -1.20333672     -2.51336436      0.33992945
H      -3.39010467     -1.41862017      0.50289988
H      -3.48638351      1.24678068     -0.98159343
H      -3.76761074     -1.68060074     -2.02177196
H      -3.93681204     -0.16030769     -3.00466812
H      -5.84722107      0.57535078     -1.53195772
H      -5.67375721     -0.94586329     -0.55121067
H      -3.14409179      1.42142195      1.59479233
H      -3.10147762     -1.33717611      3.05177751
H      -3.03508907      0.30275082      3.83426405
H      -5.27170627      0.87375943      2.81920105
H      -5.33311156     -0.76671373      2.03753495
H       2.61174741      2.63596458     -0.15158326
H       0.87561460      2.66885862      0.12698860
H       0.49476512      2.23575597     -2.33774354
H       2.23461510      2.20264797     -2.59658488
H       1.29731609      4.41418057     -3.18808989
H       2.40297170      4.57693275     -1.81300736
H       0.64785852      4.60887169     -1.55096466
