80
CCCCC(CC)COC(=O)CCCCCCCCC(=O)OCC(CC)CCCC
C       9.11154076      2.66055145      1.97861348
C       8.53864264      1.68137985      0.96531761
C       9.01821652      0.25529233      1.23608841
C       8.57837093     -0.75716283      0.17035687
C       7.05563002     -0.90493481     -0.03202732
C       6.73831098     -1.82238269     -1.23703533
C       7.12086340     -3.28569569     -1.06372131
C       6.34497355     -1.35194038      1.25885131
O       4.94377390     -1.57936174      1.03359884
C       4.15046238     -0.47088214      1.06827642
O       4.53553635      0.66568358      1.30151283
C       2.71798129     -0.87188865      0.79976981
C       1.83354093      0.30885271      0.39671841
C       2.14001958      0.80864143     -1.01938767
C       1.35585454      2.06852747     -1.40151975
C      -0.17077682      1.93826867     -1.37475314
C      -0.70356712      0.87324543     -2.33604773
C      -2.22973586      0.88604653     -2.45927110
C      -2.94337245      0.49117310     -1.16893698
C      -4.43071477      0.38272924     -1.40006022
O      -5.11791965      1.26791419     -1.89127352
O      -4.88760394     -0.82763587     -0.97585509
C      -6.29378197     -1.06180023     -1.15168820
C      -7.10840342     -0.52018509      0.04021511
C      -6.60357284     -1.06867049      1.39391281
C      -6.74975744     -2.57307670      1.57900536
C      -8.60862491     -0.76938192     -0.21959292
C      -9.57124138     -0.24386084      0.85173557
C      -9.48449264      1.25630916      1.14238365
C      -9.75700539      2.12749217     -0.07401124
H       8.74942996      3.67280039      1.77312448
H      10.20532192      2.67602324      1.93571404
H       8.81085469      2.39209466      2.99640383
H       7.44612425      1.73209098      1.01340073
H       8.83741572      1.99048429     -0.04248553
H      10.11512212      0.24883821      1.27173537
H       8.68125570     -0.06942305      2.22703685
H       9.00839025     -1.72891279      0.44141163
H       9.03832910     -0.47240421     -0.78464931
H       6.65257548      0.07580612     -0.31405923
H       5.66559953     -1.76817326     -1.46056161
H       7.24942357     -1.43120510     -2.12601413
H       8.19430315     -3.40531913     -0.89468019
H       6.86538695     -3.84483737     -1.96985426
H       6.58276568     -3.74673053     -0.23090299
H       6.76580897     -2.29561590      1.62248766
H       6.47705800     -0.62616306      2.06947302
H       2.69862644     -1.63204530      0.01048045
H       2.32847220     -1.31885945      1.72139410
H       1.94711696      1.13028304      1.11446339
H       0.78926415     -0.01984183      0.44730706
H       1.94473632      0.00960981     -1.74414626
H       3.20803187      1.04253755     -1.10459722
H       1.66733478      2.37806871     -2.40699244
H       1.64538259      2.88348859     -0.72626929
H      -0.50442438      1.73036897     -0.35275191
H      -0.59767084      2.91183845     -1.64690219
H      -0.27777252      1.04368737     -3.33242448
H      -0.37792218     -0.12332592     -2.01684493
H      -2.51867232      0.18870842     -3.25628998
H      -2.56633007      1.87820264     -2.78501539
H      -2.78584052      1.22547650     -0.37260694
H      -2.55727009     -0.47077158     -0.81214917
H      -6.63850556     -0.62655775     -2.09826959
H      -6.42556730     -2.14444408     -1.25171319
H      -6.94151095      0.56421528      0.07415540
H      -5.54621640     -0.80523833      1.52080954
H      -7.12971173     -0.56371439      2.21229490
H      -7.79576770     -2.88804186      1.52042024
H      -6.17729238     -3.12817879      0.83087928
H      -6.37204558     -2.86455346      2.56512205
H      -8.88033068     -0.32333508     -1.18492136
H      -8.78597621     -1.84582001     -0.33842478
H     -10.59447025     -0.48067773      0.53399198
H      -9.41628102     -0.79337630      1.78745618
H      -8.50473628      1.50928897      1.56119664
H     -10.22291506      1.49867180      1.91626281
H      -8.96798204      2.02509184     -0.82446879
H     -10.71262470      1.86592235     -0.53803794
H      -9.79944073      3.18072082      0.21970414
