28
CC(C)CC(=O)CC(C)C
C      -2.66212580     -1.19554744     -0.48174446
C      -2.55146418      0.29209515     -0.13782391
C      -3.74218533      0.71222933      0.72610921
C      -1.23627547      0.60159497      0.59275979
C      -0.00368630      0.51558817     -0.29806407
O      -0.08220817      0.50768591     -1.52553086
C       1.33491733      0.52517607      0.42877061
C       2.52610637      0.14118105     -0.46166782
C       3.83960485      0.48688878      0.24254612
C       2.50403018     -1.34909556     -0.81123365
H      -1.84519097     -1.51647626     -1.13538740
H      -2.63501078     -1.81513229      0.42123450
H      -3.60266745     -1.40250600     -1.00356280
H      -2.59535595      0.86504518     -1.07244040
H      -3.75312560      0.17174105      1.67881977
H      -3.70474237      1.78464427      0.94492501
H      -4.68732543      0.51053689      0.21086652
H      -1.10659000     -0.08907716      1.43405607
H      -1.25945040      1.62208421      0.99332774
H       1.46907051      1.54099003      0.81930206
H       1.27244225     -0.15978346      1.28232396
H       2.48482380      0.71405051     -1.39645268
H       3.89373829      1.55880851      0.46029367
H       3.93939554     -0.05688712      1.18819613
H       4.69810209      0.23158772     -0.38773084
H       2.55515092     -1.96939081      0.09021618
H       1.59319455     -1.61867523     -1.35467866
H       3.35682752     -1.60935649     -1.44742979
