67
CC12CCC(=O)C=C1CCC1C2CCC2(C)C(OC(=O)CCc3ccccc3)CCC12
C      -3.69261490      1.65151324     -2.03000970
C      -3.34893356      0.23251685     -1.50103854
C      -3.18924693     -0.71294374     -2.72908285
C      -4.50047128     -1.01471743     -3.44330642
C      -5.49249082     -1.59139158     -2.46540426
O      -6.35984600     -2.39279000     -2.80431109
C      -5.46108072     -1.09951484     -1.06668192
C      -4.52140888     -0.23690021     -0.63729729
C      -4.64328944      0.37382877      0.73683158
C      -3.32799702      0.33730576      1.50051094
C      -2.19143544      1.00608784      0.70750545
C      -1.99506374      0.31970930     -0.67636640
C      -1.24325951     -1.01849406     -0.49819510
C       0.10071743     -0.83746991      0.21254393
C      -0.01746378     -0.17746844      1.60047025
C      -0.49538055     -1.21946033      2.62619147
C       1.33150177      0.41071121      2.09294521
O       2.40895230     -0.49391053      1.82805640
C       3.58892841     -0.20577138      2.44078260
O       3.77485844      0.73666338      3.19994724
C       4.62740658     -1.26204811      2.15331096
C       4.71311961     -1.66783809      0.68405646
C       5.17934260     -0.55294231     -0.22040823
C       4.28792450      0.05755844     -1.11233629
C       4.71467026      1.09665125     -1.94082384
C       6.03694679      1.53273620     -1.88857739
C       6.93339514      0.92976347     -1.00862789
C       6.50772684     -0.10838513     -0.17850383
C       1.47654716      1.72877664      1.33499091
C       0.05548807      2.18854617      1.02203702
C      -0.89624650      1.09069842      1.54740244
H      -4.64990891      1.67060353     -2.56272495
H      -2.92199183      2.00587437     -2.72463066
H      -3.77051477      2.39101428     -1.22689705
H      -2.46620884     -0.29668296     -3.44102825
H      -2.79847213     -1.68609159     -2.41104377
H      -4.93403415     -0.12605758     -3.91066815
H      -4.31806562     -1.75703307     -4.22834842
H      -6.28967857     -1.42445592     -0.44652330
H      -4.97782328      1.41370474      0.63543530
H      -5.40963514     -0.13866864      1.33155321
H      -3.46428038      0.85264774      2.45918297
H      -3.09430625     -0.70315658      1.73582375
H      -2.50844529      2.04265370      0.53024950
H      -1.32053227      0.95606494     -1.26704648
H      -1.00345277     -1.45053295     -1.47507269
H      -1.86508089     -1.75001115      0.02792036
H       0.59244009     -1.81499940      0.29806308
H       0.74542143     -0.23855463     -0.44276452
H       0.28186155     -1.97136719      2.80648281
H      -0.72865516     -0.75203472      3.58916311
H      -1.38252879     -1.76280032      2.29618658
H       1.26884049      0.60983763      3.17255331
H       4.38127675     -2.13644562      2.76643680
H       5.59607396     -0.88380568      2.50035576
H       3.74754474     -2.05413266      0.33467413
H       5.41677485     -2.50435102      0.58418405
H       3.25224623     -0.26975640     -1.16599511
H       4.01459750      1.56612185     -2.62691847
H       6.36950860      2.34211317     -2.53310642
H       7.96528566      1.26854877     -0.96729559
H       7.22201871     -0.56747944      0.50135944
H       2.00925040      2.47289892      1.93645274
H       2.05346811      1.60347978      0.41247011
H      -0.16394730      3.14641808      1.50716958
H      -0.04483378      2.35123918     -0.05601385
H      -1.16550980      1.38052301      2.57374929
