18
COC1CCC=CO1
C       2.80129669      0.60880042      0.15606460
O       1.76781999      0.21380316     -0.73474503
C       0.54808495     -0.07959304     -0.04321672
C      -0.43020608     -0.64035528     -1.07443575
C      -1.75063463     -0.99473337     -0.40333413
C      -2.14595815      0.06091729      0.57786710
C      -1.28837701      1.00611161      0.97732541
O       0.02505762      1.09287595      0.60185048
H       2.99686208     -0.17550044      0.89371875
H       2.54583986      1.54599951      0.65915067
H       3.71207419      0.76980516     -0.42723053
H       0.75330818     -0.84062156      0.72259007
H      -0.00659869     -1.51444153     -1.58231653
H      -0.60685479      0.11355618     -1.85372372
H      -2.52938804     -1.10733316     -1.16547594
H      -1.66503918     -1.95288516      0.12198880
H      -3.16970884      0.06953914      0.94003548
H      -1.55757814      1.82405514      1.63388698
