19
Nc1cc([N+](=O)[O-])c(O)c([N+](=O)[O-])c1
N       2.74439037     -0.49276903      1.07760544
C       1.50186700     -0.23831920      0.49739535
C       1.02151431      1.06652203      0.41322903
C      -0.28135645      1.29944994     -0.04872963
N      -0.72264646      2.67519023     -0.12921370
O      -1.57210649      3.04741871      0.69053481
O      -0.16498182      3.38881582     -0.97438954
C      -1.14581101      0.26387882     -0.40918424
O      -2.38524014      0.58692194     -0.88776591
C      -0.67327766     -1.04735482     -0.26480036
N      -1.52058230     -2.19753179     -0.59393264
O      -1.02002889     -3.32804774     -0.53452359
O      -2.69496332     -1.96391278     -0.92012675
C       0.63260151     -1.29411321      0.20574290
H       3.42362211      0.25988839      0.99932460
H       3.15329516     -1.39668923      0.85517138
H       1.65246881      1.90325644      0.70699676
H      -2.93200052     -0.21657902     -1.02986299
H       0.98323580     -2.31602550      0.34652909
