13
NC1CONC1=O
N      -1.81968917      0.11243436      0.31446668
C      -0.55736714     -0.14061628     -0.39874705
C       0.30360809     -1.24426374      0.19720209
O       1.65785198     -0.92517909     -0.16126190
N       1.68175582      0.48349019     -0.32416645
C       0.41137447      1.00859210     -0.27693858
O       0.12818945      2.19140316     -0.16410086
H      -1.61092208      0.36753197      1.28161701
H      -2.22801768      0.96436904     -0.08144926
H      -0.74568716     -0.31523194     -1.46376417
H       0.04066808     -2.22988095     -0.19838768
H       0.24618005     -1.27907697      1.29179301
H       2.49205529      1.00642818     -0.01626285
