19
Cc1ccccc1CO
C      -1.79672283     -1.11575430      0.26523279
C      -0.35526397     -0.70200990      0.14180772
C       0.64975506     -1.60275101      0.52925772
C       1.99713263     -1.25610538      0.43165512
C       2.35904741     -0.00448450     -0.05430026
C       1.37337658      0.89933726     -0.44862999
C       0.01122908      0.56129253     -0.36869033
C      -1.01679770      1.58515417     -0.78426558
O      -1.52147637      2.28040332      0.34842312
H      -1.89497213     -2.07986381      0.77565262
H      -2.35913473     -0.38157397      0.85038104
H      -2.24706164     -1.21687161     -0.72714787
H       0.38770226     -2.58609406      0.91461774
H       2.76332531     -1.96362714      0.73765679
H       3.40845437      0.26898817     -0.12635371
H       1.67451104      1.87659842     -0.82166454
H      -0.57984613      2.32088258     -1.46811752
H      -1.85136135      1.11834946     -1.31648272
H      -1.00189688      1.99812978      1.12096788
