26
O=C1NC(=O)C2(CCCCC2)C(=O)N1
O       4.24612745     -0.09306060      0.91331839
C       3.06359749      0.01689937      0.60664724
N       2.68180458      0.68011695     -0.51843721
C       1.53665474      0.37099852     -1.20291740
O       1.49298475      0.49466945     -2.42335542
C       0.36379309     -0.08056256     -0.33539964
C      -0.22360850      1.18708704      0.33270463
C      -1.56080647      0.93792620      1.02797365
C      -2.57783117      0.31933055      0.07925182
C      -2.05316786     -0.97521830     -0.52574648
C      -0.69960786     -0.77938555     -1.21101042
C       0.91299874     -1.01352915      0.74083155
O       0.37273135     -2.05193274      1.10833597
N       2.08601989     -0.60697989      1.31801335
H       3.45558904      0.97009882     -1.10256601
H      -0.36700348      1.96613467     -0.42896920
H       0.47425981      1.61097138      1.06587315
H      -1.41379745      0.28036491      1.89314493
H      -1.95190329      1.88598378      1.41477883
H      -2.81307056      1.03043011     -0.72214388
H      -3.51266625      0.12303676      0.61624404
H      -1.97593014     -1.73808324      0.25655903
H      -2.77674250     -1.35603759     -1.25608388
H      -0.87637641     -0.18903739     -2.12021542
H      -0.32738145     -1.75398196     -1.55239672
H       2.44333248     -1.23623954      2.02556513
