39
CC(C)Oc1cccc(NC(=O)c2ccccc2C(F)(F)F)c1
C      -5.40441526     -1.88971283      0.91651073
C      -4.83934320     -0.63166472      0.26008688
C      -5.60204631     -0.32843253     -1.02624784
O      -3.46719315     -0.90698795     -0.04103036
C      -2.56931259      0.12340162     -0.06147044
C      -2.86453955      1.48105254      0.02283399
C      -1.83316200      2.42157784     -0.01850734
C      -0.50343582      2.01240187     -0.14771452
C      -0.19228097      0.65728171     -0.23880275
N       1.11932660      0.15657252     -0.37800825
C       2.29202092      0.88398547     -0.40863586
O       2.43476088      2.09250335     -0.29734665
C       3.51247389      0.05955690     -0.59125463
C       3.56593679     -0.82875294     -1.67815251
C       4.70773384     -1.59757949     -1.89781481
C       5.80005739     -1.47695805     -1.04297796
C       5.75345588     -0.58722156      0.03265539
C       4.60738393      0.19241656      0.27875541
C       4.57951586      1.13733311      1.45539468
F       3.41538269      1.09463723      2.15897089
F       4.80299803      2.43387380      1.11778169
F       5.54898409      0.83751507      2.37377156
C      -1.23474028     -0.27809141     -0.19730167
H      -4.84754407     -2.12417593      1.83038300
H      -6.46032154     -1.76402996      1.17499953
H      -5.30443571     -2.75849096      0.25621014
H      -4.94253388      0.18481023      0.98376985
H      -6.66578076     -0.16681409     -0.82602637
H      -5.50174126     -1.15117003     -1.74306941
H      -5.20682508      0.56400898     -1.52103570
H      -3.88080781      1.84773133      0.11174542
H      -2.06253748      3.48252639      0.04790624
H       0.26451615      2.77917533     -0.17570093
H       1.19998487     -0.85202235     -0.41790111
H       2.73304807     -0.90404904     -2.37443786
H       4.75229112     -2.27954363     -2.74400502
H       6.69527511     -2.07031540     -1.21778243
H       6.62237563     -0.50404832      0.68575317
H      -1.02452499     -1.34230065     -0.26687118
