25
O=C(O)CCCOc1cc(Cl)c(Cl)cc1Cl
O      -2.41314238      1.32295577     -1.21833189
C      -2.76177381      0.63347547     -0.27411376
O      -2.99878174      1.17284138      0.93487467
C      -2.99112915     -0.85093159     -0.31014859
C      -2.06373342     -1.63515450      0.61834413
C      -0.58629935     -1.50162360      0.24311737
O      -0.14417020     -0.19183376      0.59266871
C       1.09255767      0.21237650      0.16895782
C       2.05163864     -0.63680902     -0.39076903
C       3.29607899     -0.13314108     -0.79198803
Cl      4.42637714     -1.24802073     -1.47645648
C       3.59065339      1.22495206     -0.63076602
Cl      5.10547965      1.90708909     -1.10390887
C       2.64277437      2.07773590     -0.06501121
C       1.40336946      1.57278235      0.33449037
Cl      0.26950576      2.67616797      1.03614034
H      -2.72057900      2.10822386      0.83564578
H      -2.86023153     -1.19048027     -1.34432438
H      -4.03875379     -1.03712553     -0.04767043
H      -2.34481117     -2.69353501      0.56913529
H      -2.21018684     -1.30069130      1.65233771
H      -0.00960086     -2.23797369      0.81483041
H      -0.46094283     -1.68758295     -0.83043045
H       1.85894203     -1.69735078     -0.51890152
H       2.86675896      3.13365345      0.06544070
