17
O=C(O)CCCC(=O)O
O      -1.50051846      1.09838233      1.41857120
C      -2.03100451      0.32619691      0.63970837
O      -3.35445319      0.39732124      0.39732005
C      -1.37751929     -0.78096368     -0.14398320
C       0.13752476     -0.83423148      0.04731011
C       0.86316707      0.30648477     -0.66889089
C       2.35579878      0.19892933     -0.50743214
O       2.98085885     -0.68321161      0.05486193
O       2.99892162      1.22869728     -1.09242934
H      -3.66232752      1.13608246      0.96355995
H      -1.61953473     -0.65530360     -1.20486784
H      -1.81015022     -1.72558447      0.20475529
H       0.50334703     -1.79132556     -0.34588233
H       0.38694007     -0.82131635      1.11578808
H       0.54822585      1.27348262     -0.26402002
H       0.63495696      0.27760010     -1.74004841
H       3.94576692      1.04875971     -0.91394564
