37
NCCNc1ccc(S(=O)(=O)c2ccc(N)cc2)cc1
N       6.20369284     -0.21564878     -0.77503126
C       5.60996464      1.10649109     -0.51930594
C       4.19744781      0.99694100      0.09391419
N       3.37370188      0.13267365     -0.75117245
C       2.16207731     -0.35893029     -0.26396160
C       1.39751921      0.30503458      0.70451026
C       0.15090749     -0.18611897      1.10624133
C      -0.35835539     -1.33860349      0.50751248
S      -1.94955316     -1.94655150      1.01189742
O      -2.23535573     -3.14900043      0.25017683
O      -1.93576462     -1.97804943      2.46355520
C      -3.14411468     -0.73370776      0.50077352
C      -3.31653720     -0.48063601     -0.86143128
C      -4.24451725      0.48167725     -1.26695393
C      -5.03311323      1.15619391     -0.32883433
N      -5.86960754      2.20127881     -0.73561932
C      -4.81117277      0.92348060      1.03267201
C      -3.88640548     -0.03558587      1.45379580
C       0.36547944     -2.00242351     -0.48058992
C       1.60948225     -1.49814679     -0.87023114
H       6.29856575     -0.71923004      0.10698933
H       7.14898342     -0.09045555     -1.13641241
H       5.55319712      1.64547631     -1.47157238
H       6.25926175      1.67862686      0.15169307
H       4.28208675      0.57655685      1.10388248
H       3.75709479      1.99761021      0.16405173
H       3.95872523     -0.59543562     -1.17037756
H       1.75838528      1.22138205      1.16237271
H      -0.40943402      0.33835802      1.87651307
H      -2.73537582     -1.01561126     -1.60871277
H      -4.35140192      0.69887157     -2.32695665
H      -6.21520137      2.10661544     -1.68574106
H      -6.61297060      2.41416503     -0.07745101
H      -5.36311364      1.48818149      1.78010543
H      -3.74880680     -0.21785417      2.51709741
H      -0.02297845     -2.89888411     -0.95789223
H       2.15720671     -2.00874115     -1.65973910
