16
C=CC(O)CC
C       2.12578100     -0.60810100     -1.29430746
C       1.33356051     -0.77448884     -0.22688722
C       0.33737408      0.23630966      0.26054603
O       0.70716077      0.58695425      1.58876528
C      -1.08308817     -0.33441834      0.26215085
C      -2.11500050      0.69494518      0.70561292
H       2.09466348      0.29486766     -1.89629014
H       2.82599567     -1.38367056     -1.59042652
H       1.40338668     -1.69915964      0.34315260
H       0.37099436      1.14745449     -0.34831005
H       1.63952573      0.86148759      1.55503525
H      -1.14456487     -1.19188915      0.94427966
H      -1.34632106     -0.69155769     -0.74080360
H      -1.92818797      1.03076134      1.73038217
H      -3.11914393      0.26042320      0.67193081
H      -2.10213580      1.57008186      0.04817142
