18
CSc1nc2ccccc2s1
C       3.81917790     -0.40043753     -0.63315065
S       2.80368189     -1.87200038     -0.88537417
C       1.20759008     -1.22747677     -0.55730023
N       1.01834462      0.02901867     -0.22930417
C      -0.33251236      0.25922740     -0.02887531
C      -0.91593968      1.49000042      0.33484878
C      -2.30146673      1.58046274      0.50473939
C      -3.10890563      0.46302049      0.31707642
C      -2.55544855     -0.76940135     -0.04385655
C      -1.16296232     -0.84871627     -0.21175722
S      -0.19512814     -2.20426918     -0.64703613
H       4.86812734     -0.65525415     -0.80741780
H       3.72097165     -0.03265705      0.39209768
H       3.53692395      0.39020827     -1.33404463
H      -0.28298422      2.35977652      0.48044161
H      -2.74735795      2.53194480      0.78537892
H      -4.18539295      0.54726809      0.45249384
H      -3.18671890     -1.64071471     -0.19000598
