40
CCCCCCCC(=O)O.OCC(O)CO
C      -3.48838347      1.11287435     -0.49549352
C      -3.16554071      0.03105814      0.52361205
C      -1.66390228     -0.19011310      0.72364023
C      -0.96226573     -0.72819283     -0.52623008
C       0.48686899     -1.15509877     -0.27086522
C       1.40488727      0.00845519      0.10812410
C       2.85602051     -0.45197615      0.24078610
C       3.76794976      0.68405869      0.61766886
O       3.46727542      1.85020014      0.80351631
O       5.04732129      0.27862986      0.74306869
O       1.87563644      1.27934239      0.34348498
C       1.25506718      0.02610536      0.04631741
C      -0.23509116      0.27050017     -0.18181418
O      -0.79604287      0.88621379      0.99189439
C      -0.99313336     -1.02667990     -0.45044503
O      -2.37897200     -0.73782795     -0.63286661
H      -2.99792748      2.05636612     -0.23603185
H      -3.17221970      0.82306580     -1.50181444
H      -4.56835270      1.28969441     -0.52587259
H      -3.60566832      0.31665160      1.48652842
H      -3.64459503     -0.90796761      0.22295004
H      -1.52922216     -0.90248236      1.54679012
H      -1.20278816      0.75252741      1.03955798
H      -0.97907594      0.02468345     -1.32251477
H      -1.51386091     -1.59944975     -0.90039741
H       0.86844832     -1.63006951     -1.18330897
H       0.51218078     -1.91867957      0.51609485
H       1.33633662      0.79705025     -0.65149358
H       1.08057051      0.45279249      1.05625833
H       3.20336361     -0.86700718     -0.71177548
H       2.93125659     -1.22280973      1.01569976
H       5.53132294      1.09573865      0.98584217
H       2.82416647      1.10130841      0.47421847
H       1.41782582     -0.63291385      0.90523315
H       1.72803506     -0.40228870     -0.84236276
H      -0.39100442      0.98335473     -0.99940278
H      -0.16871230      1.60532494      1.21205798
H      -0.62341203     -1.52786970     -1.34962518
H      -0.91366468     -1.71406516      0.39812694
H      -2.60069817     -0.11050454      0.08518321
