27
NCCCCCCNC(=O)O
N      -4.36897522     -0.07019853     -0.23893111
C      -3.55025617     -1.25986420     -0.03913229
C      -2.17052411     -0.91606224      0.52474481
C      -1.32797398     -0.06179138     -0.42748638
C       0.06602334      0.19871580      0.14817808
C       0.90629303      1.05839230     -0.80056120
C       2.28839108      1.36859967     -0.23302696
N       3.11699615      0.19010373     -0.13955543
C       4.18583297      0.12892890      0.68422937
O       4.53121696      0.91541591      1.54440017
O       4.89647304     -0.97498633      0.42167238
H      -4.49638679      0.41097001      0.65058466
H      -5.29926075     -0.34828520     -0.54877949
H      -4.06464759     -1.93463376      0.65395223
H      -3.44375553     -1.78851115     -0.99249942
H      -1.63996379     -1.85364952      0.73238504
H      -2.28125629     -0.39825777      1.48591552
H      -1.23563204     -0.57267122     -1.39362182
H      -1.82680300      0.89653444     -0.61360061
H      -0.02589070      0.70479751      1.11690649
H       0.56898890     -0.75855337      0.32952656
H       1.00668207      0.54974134     -1.76728163
H       0.38445966      2.00493198     -0.98637546
H       2.21048879      1.84066360      0.75292291
H       2.80936563      2.07126878     -0.89299386
H       3.13070108     -0.48377964     -0.89266254
H       5.62941325     -0.91781967      1.06843540
