25
Nc1c2ccccc2nc2ccc(F)cc12
N       0.33234226      2.51359359     -0.15222846
C       0.13422318      1.10439736     -0.13919105
C      -1.16639765      0.56933958      0.07779257
C      -2.34206723      1.34788225      0.24176463
C      -3.59164962      0.75412103      0.42032459
C      -3.69241535     -0.62756219      0.44156290
C      -2.54105292     -1.40230149      0.29630410
C      -1.28564280     -0.83338878      0.12456296
N      -0.23852587     -1.66153706      0.02038919
C       0.99422474     -1.15503506     -0.08415373
C       2.05591549     -2.05193654     -0.12341947
C       3.38049436     -1.62325860     -0.20635765
C       3.64268390     -0.26717926     -0.24587313
F       4.90872706      0.16280348     -0.31523879
C       2.60498880      0.65589544     -0.21507615
C       1.25518742      0.22957266     -0.14528663
H      -0.47220843      3.02566842     -0.49804731
H       1.16544331      2.79842048     -0.65600922
H      -2.29459926      2.43285713      0.24835216
H      -4.47772654      1.37084770      0.54599339
H      -4.65726816     -1.10778662      0.57996352
H      -2.62399419     -2.48673913      0.32654644
H       1.84304798     -3.11816882     -0.07991251
H       4.19640404     -2.33769090     -0.23127084
H       2.86986551      1.70718533     -0.23149152
