56
CN(C)[C@@H]1C(=O)C(C(N)=O)=C(O)[C@@]2(O)C(=O)C3=C(O)c4c(O)ccc(Cl)c4[C@@](C)(O)[C@H]3C[C@@H]12
C      -4.08957763     -1.83218480     -1.55474779
N      -3.36750272     -2.11715670     -0.31501238
C      -4.27731142     -2.66032466      0.69447273
C      -2.54186701     -0.98289421      0.18696423
C      -3.32239728      0.32561398      0.43229780
O      -4.49848169      0.34692576      0.80681113
C      -2.57190784      1.61249837      0.35282628
C      -2.96231846      2.81574796      1.14038832
N      -4.06461273      2.71332190      1.92436413
O      -2.31577197      3.85939870      1.08488101
C      -1.53685174      1.68605408     -0.51044103
O      -0.78475591      2.83954382     -0.69910216
C      -1.15893377      0.52053927     -1.39894773
O      -2.10435215      0.53102910     -2.47239144
C       0.25022034      0.72251967     -2.01607886
O       0.44154984      1.28885970     -3.09449131
C       1.40190340      0.31662115     -1.17525506
C       2.35038865      1.21513699     -0.88656201
O       2.42078379      2.45942027     -1.48802536
C       3.31866486      0.95180940      0.20536392
C       4.12707025      1.98885351      0.72670237
O       4.09165902      3.27694765      0.26051442
C       5.02110624      1.77333864      1.76679528
C       5.14163283      0.50457140      2.30908627
C       4.36550156     -0.54883431      1.81377467
Cl      4.68137176     -2.09290592      2.53621039
C       3.42358683     -0.35230964      0.77109779
C       2.60670338     -1.49867737      0.15404404
C       3.51821334     -2.22685006     -0.85836794
O       2.19620425     -2.46555510      1.12470584
C       1.29987974     -1.04405339     -0.57954572
C       0.00099337     -1.08628989      0.25158253
C      -1.24251057     -0.82497263     -0.65235243
H      -4.80214634     -1.00740075     -1.45461110
H      -3.39839610     -1.60593428     -2.37075804
H      -4.64950176     -2.71711689     -1.88119140
H      -5.10794263     -1.99108473      0.93658156
H      -3.74027843     -2.89819045      1.61934306
H      -4.70591714     -3.60517449      0.34063027
H      -2.22431603     -1.27262812      1.19948215
H      -4.41458711      3.54668450      2.37864302
H      -4.69653271      1.91833761      1.83321395
H      -1.11697886      3.55255609     -0.10185661
H      -1.78595609      1.21092073     -3.10228044
H       1.79622043      2.47187180     -2.24892993
H       3.46114159      3.29177318     -0.48920973
H       5.62704937      2.59373365      2.14235192
H       5.85669543      0.33792876      3.11147331
H       3.00382577     -3.09084854     -1.29431776
H       4.41819179     -2.62891438     -0.37928742
H       3.83822739     -1.56751405     -1.67242414
H       2.97946980     -2.74198606      1.63260166
H       1.14306475     -1.75550664     -1.40364974
H      -0.11901219     -2.07809890      0.70327913
H       0.04332436     -0.35907669      1.07254128
H      -1.22392585     -1.62007401     -1.41318697
