21
C=C(C)CC(C)C
C       2.31493265     -0.70666006      0.66232458
C       1.48836673     -0.01602767     -0.14032593
C       1.84320140      1.35738013     -0.63732512
C       0.17605755     -0.59917219     -0.61919939
C      -1.08104689      0.12041972     -0.08936898
C      -2.33452407     -0.49704775     -0.71504372
C      -1.18156887      0.06062394      1.43659264
H       2.06579645     -1.70387751      1.01252650
H       3.26237209     -0.29326517      0.99487844
H       1.81701989      1.38438764     -1.73145981
H       2.84821541      1.65956778     -0.32375943
H       1.13975217      2.10161221     -0.25210885
H       0.11830620     -1.66268674     -0.35002246
H       0.17456042     -0.57259341     -1.71703677
H      -1.04835718      1.17514421     -0.38918901
H      -2.29818604     -0.42802958     -1.80740839
H      -3.23569493      0.02633740     -0.37824813
H      -2.43544441     -1.55369880     -0.44459628
H      -2.10445955      0.53830985      1.78298352
H      -0.34606980      0.58405821      1.91186319
H      -1.18322922     -0.97478220      1.79392341
