36
Nc1ncnc2c1ncn2[C@]1(CO)O[C@H](CO)[C@@H](O)[C@H]1O
N       5.02219164      0.49166035      1.33303666
C       3.95285270     -0.10980824      0.68621830
N       4.13580221     -1.33753036      0.14949717
C       3.10291267     -1.91927246     -0.49445294
N       1.84877604     -1.44423577     -0.67476082
C       1.71756982     -0.22981915     -0.10973174
C       2.68730286      0.48833897      0.57087342
N       2.18181116      1.69053537      1.01492416
C       0.93445287      1.71143926      0.59383074
N       0.59967946      0.56489707     -0.08038071
C      -0.68421748      0.26608528     -0.72020382
C      -0.57213533      0.48269965     -2.25272674
O      -0.12820172      1.80452334     -2.59396895
O      -1.67667319      1.18300559     -0.17998658
C      -2.89910226      0.45251389      0.10743630
C      -3.14075079      0.56379477      1.61497733
O      -3.32919076      1.92922293      1.98021599
C      -2.69634811     -0.98730637     -0.34425713
O      -3.17179117     -1.16989471     -1.68094644
C      -1.18707035     -1.14096663     -0.31808346
O      -0.78710211     -2.21776722     -1.16564657
H       4.75369753      1.22892427      1.97529968
H       5.72051735     -0.17262086      1.63840842
H       3.30815489     -2.89821414     -0.92044839
H       0.23754285      2.52852064      0.74077255
H       0.11647803     -0.22949185     -2.71938164
H      -1.54790656      0.37312550     -2.73208574
H       0.83389476      1.85179699     -2.45264402
H      -3.70393504      0.95318141     -0.44178129
H      -2.28221081      0.19345251      2.18447778
H      -4.03227000      0.00582659      1.91565345
H      -2.68293747      2.44925023      1.46496664
H      -3.21414638     -1.72298311      0.27840641
H      -2.72694549     -1.97910296     -2.00978381
H      -0.88304792     -1.38173469      0.70925270
H       0.19234611     -2.27204607     -1.10132073
