22
CC=CC=CC(C)C
C       4.25986894      0.27386932     -0.07526058
C       2.88002356      0.11075438     -0.62485761
C       1.79174500     -0.07618027      0.13640580
C       0.46660226     -0.23162334     -0.41610901
C      -0.62222166     -0.41865420      0.34557455
C      -2.01484023     -0.58312289     -0.21232011
C      -2.92247514      0.53705339      0.29479418
C      -2.58019710     -1.94961300      0.17347439
H       4.91146614     -0.51401255     -0.46523607
H       4.27974986      0.22327134      1.01796754
H       4.66979746      1.24173604     -0.37957996
H       2.79070693      0.15130698     -1.70808123
H       1.89077842     -0.11538333      1.21937971
H       0.36788366     -0.19237851     -1.49904499
H      -0.52554101     -0.45821857      1.42930377
H      -1.98696051     -0.52582813     -1.30802698
H      -3.01128199      0.52093451      1.38704804
H      -2.53364266      1.51909892      0.00318551
H      -3.92928868      0.43919148     -0.12544461
H      -3.58156086     -2.08706777     -0.24869584
H      -2.65568944     -2.06245749      1.26100936
H      -1.94492294     -2.75797882     -0.20548587
