63
CCC[C@@H]1C[C@@H](C(=O)N[C@H]([C@@H](C)O)[C@H]2O[C@H](SC)[C@H](O)[C@@H](O)[C@H]2O)N(C)C1.Cl
C      -6.75881848      0.49312177      2.17171701
C      -5.59928596      0.56478064      1.16428703
C      -5.21053542     -0.84326041      0.88053472
C      -4.09480811     -1.03935899     -0.08615283
C      -2.84905775     -0.37506313      0.43755278
C      -2.25929215      0.28687963     -0.76179879
C      -0.94763922     -0.28365903     -1.15246263
O      -0.83820732     -0.74035550     -2.32317583
N       0.15970411     -0.32794962     -0.26538838
C       1.44736782     -0.87623680     -0.61516437
C       1.78743510     -1.91196421      0.43174955
C       0.74583280     -3.00571125      0.49843540
O       3.01402037     -2.53244615      0.21544572
C       2.40966258      0.31614428     -0.53690712
O       2.37049911      0.78146760      0.74725265
C       3.50248281      1.41542062      1.19514371
S       3.93933237      2.85733478      0.19023420
C       5.44258412      3.59083225      0.89347666
C       4.62147634      0.39431014      1.16992334
O       5.74214679      0.79573739      1.85710507
C       4.91636371      0.12115124     -0.28470492
O       5.67827698     -1.05932501     -0.33075166
C       3.72015875      0.09650331     -1.16289080
O       3.75078017     -1.12921122     -1.87319384
N      -3.16081723      0.18969636     -1.86958473
C      -3.34213538      1.50234714     -2.44197916
C      -4.36802730     -0.43956125     -1.43812300
Cl      0.68602339      0.00000000      0.00000000
H      -6.76076384      1.37778644      2.84070516
H      -7.73471808      0.38225670      1.63882225
H      -6.65139588     -0.39998412      2.82615396
H      -6.03827002      1.08255734      0.26460320
H      -4.84066571      1.18342527      1.65819598
H      -6.15165167     -1.36253732      0.52717911
H      -5.01062288     -1.33056336      1.87193763
H      -3.93735027     -2.15389071     -0.18097897
H      -3.06422267      0.35442147      1.26021858
H      -2.15570610     -1.11494810      0.90628503
H      -2.11492468      1.37629302     -0.49381425
H       0.03375102      0.05505448      0.68465938
H       1.51546351     -1.26865569     -1.63223582
H       1.80098202     -1.43388374      1.43827880
H      -0.04092925     -2.80331627      1.23691366
H       0.21470569     -3.11297968     -0.49136310
H       1.22346652     -4.01269626      0.66417194
H       2.88946289     -3.30547906     -0.36503353
H       1.85854762      1.10134780     -1.14561527
H       3.32556813      1.75374890      2.22566692
H       5.25384252      3.86547274      1.95577154
H       6.28156261      2.85880983      0.90348560
H       5.78311726      4.45941061      0.29229078
H       4.22895645     -0.52712449      1.64745445
H       6.54349509      0.50176335      1.34040672
H       5.65093356      0.92679983     -0.58784767
H       5.58703795     -1.59677476      0.48081274
H       3.90813497      0.85079685     -1.98838136
H       4.48544088     -1.12388764     -2.54283694
H      -3.67503533      2.23434160     -1.64904920
H      -4.02780163      1.50549322     -3.31317933
H      -2.33347195      1.85495083     -2.75615645
H      -5.24428489      0.24089612     -1.43474699
H      -4.62215344     -1.26052978     -2.14014039
H      -0.68602339      0.00000000      0.00000000
