24
COC(=O)c1cc(O)c(OC)c(O)c1
C      -4.38459360     -0.90823379     -0.86975948
O      -2.96243971     -0.87015440     -0.74344918
C      -2.48164482      0.31073052     -0.28134159
O      -3.15244043      1.28571547      0.01805743
C      -0.99786124      0.27082639     -0.17883709
C      -0.25227829     -0.86382624     -0.53657056
C       1.13368131     -0.83978245     -0.41946320
O       1.83742929     -1.94491457     -0.80522148
C       1.78632978      0.28829516      0.07274175
O       3.15261576      0.29438501      0.19560042
C       3.51803787     -0.14855332      1.50852753
C       1.04813583      1.42577550      0.39027207
O       1.66526350      2.57014661      0.80701853
C      -0.33803396      1.42197383      0.28121168
H      -4.66457238     -1.89533599     -1.24788275
H      -4.86014573     -0.76313555      0.10532839
H      -4.72646763     -0.15356400     -1.58502542
H      -0.73460111     -1.76162718     -0.91312529
H       2.77796566     -1.68548884     -0.80279530
H       3.17985413     -1.17465562      1.68980783
H       4.61018076     -0.13539280      1.57142850
H       3.12551226      0.52442057      2.27861391
H       2.62039379      2.43708447      0.66101918
H      -0.90032106      2.31531125      0.54454278
