59
CC(=O)OCC(=O)C1(O)CCC2C3CCC4=CC(=O)CCC4(C)C3C(=O)CC21C
C       6.84718943     -0.81267133      2.73187692
C       5.68923209     -0.16832065      2.02775474
O       5.34526203      0.99397404      2.18578039
O       5.10119333     -1.04430952      1.16581682
C       4.04043628     -0.46532050      0.40102182
C       3.54139724     -1.42666824     -0.67252599
O       4.04824991     -2.54887448     -0.82372635
C       2.35375486     -0.99593419     -1.58354592
O       2.42406245     -1.85666666     -2.73399315
C       2.46513932      0.44608429     -2.06801452
C       1.73041105      1.28395806     -1.02312861
C       0.70878714      0.34881259     -0.33791988
C      -0.72872673      0.92718371     -0.47591023
C      -0.91253589      2.03420011      0.57594137
C      -2.31093379      2.62950797      0.56331168
C      -3.35179969      1.54805310      0.70107492
C      -4.23807773      1.61833394      1.70780994
C      -5.34428774      0.64605262      1.82658332
O      -6.03824005      0.63665060      2.84253781
C      -5.60320657     -0.24566062      0.64083902
C      -4.27861108     -0.73752226      0.07298206
C      -3.29243075      0.40776591     -0.33201917
C      -3.71349168      0.97506967     -1.70940042
C      -1.81990746     -0.16343704     -0.35651933
C      -1.57528091     -1.20781113     -1.45542199
O      -2.47233345     -1.92379942     -1.90306782
C      -0.16495096     -1.32754777     -2.01734715
C       0.92432974     -1.06610001     -0.95018548
C       0.85338387     -2.18699393      0.11485897
H       7.17470949     -0.16026833      3.54556754
H       7.67318876     -0.95500964      2.02977884
H       6.53768235     -1.76919019      3.16645460
H       4.41134250      0.43471888     -0.09342042
H       3.21971473     -0.23927663      1.08165058
H       2.88475477     -2.67588993     -2.45144721
H       3.50352620      0.77292837     -2.19450774
H       1.98083748      0.57425494     -3.04610041
H       1.28678159      2.16092283     -1.50409472
H       2.42431671      1.67874236     -0.27288542
H       0.96004721      0.30005758      0.73174186
H      -0.82491898      1.38712347     -1.47089423
H      -0.17758053      2.83830242      0.41925951
H      -0.71126358      1.62864633      1.57711562
H      -2.48860172      3.18202644     -0.36316242
H      -2.38741525      3.35216241      1.38434628
H      -4.23330412      2.40524908      2.45066861
H      -6.20477723     -1.10250885      0.96506112
H      -6.18656615      0.30996426     -0.09585416
H      -4.49822081     -1.38519294     -0.78122982
H      -3.80441164     -1.38263886      0.83068992
H      -4.70058201      1.46041812     -1.66319349
H      -3.78063178      0.18627279     -2.46896720
H      -3.00283832      1.72767743     -2.07941940
H      -1.65412915     -0.67594302      0.59783587
H      -0.09373449     -0.59492407     -2.84531435
H      -0.05152801     -2.33173145     -2.45620990
H       1.09128921     -3.15312478     -0.34009911
H      -0.13595360     -2.26983641      0.58529916
H       1.56025209     -2.02194143      0.94136732
