26
O=C1c2ccc(O)cc2C(=O)c2ccc(O)cc21
O       0.49967664     -0.36763429     -2.59702125
C       0.26874915     -0.19886249     -1.40542714
C      -1.11979752     -0.06205136     -0.92187982
C      -2.18117081     -0.12585283     -1.83353823
C      -3.49523360      0.00292330     -1.38119540
C      -3.74369607      0.19411455     -0.02608993
O      -5.04226257      0.31446290      0.36830710
C      -2.69907386      0.25936263      0.88984518
C      -1.37943338      0.13001710      0.43544847
C      -0.26874892      0.19887203      1.40542567
O      -0.49967661      0.36764154      2.59701973
C       1.11979743      0.06205739      0.92187881
C       2.18116961      0.12584920      1.83353848
C       3.49523246     -0.00293574      1.38119685
C       3.74369598     -0.19411876      0.02609111
O       5.04226186     -0.31446974     -0.36830520
C       2.69907461     -0.25935536     -0.88984617
C       1.37943386     -0.13000746     -0.43544997
H      -1.99068372     -0.27536847     -2.89481750
H      -4.32310185     -0.04581055     -2.08441203
H      -5.07304227      0.44269634      1.33170031
H      -2.89430131      0.40880947      1.94868507
H       1.99068245      0.27536496      2.89481814
H       4.32309937      0.04578700      2.08441456
H       5.07304514     -0.44269456     -1.33170002
H       2.89430395     -0.40879679     -1.94868682
