35
CCc1onc(C)c1N=C1C=C(O)C(=O)c2ccccc21
C      -3.18463164      1.77420387     -0.92900026
C      -3.36703194      0.93282755      0.32350530
C      -2.88857068     -0.45206235      0.12617814
O      -3.76916039     -1.33363338     -0.42782814
N      -3.18104120     -2.58789746     -0.51606287
C      -1.95160150     -2.45197514      0.00211386
C      -1.04171932     -3.61249244      0.10177855
C      -1.71604261     -1.11312106      0.37640253
N      -0.56585886     -0.58951453      0.96462167
C       0.36215249     -0.15761205      0.16319234
C       0.33112372     -0.15967941     -1.33048615
C       1.33615688      0.30759723     -2.07147969
O       1.26680659      0.28909060     -3.45287989
C       2.56432511      0.86500074     -1.46182121
O       3.45898751      1.28049096     -2.19162578
C       2.65030111      0.89307539      0.00524240
C       3.80345102      1.41722761      0.60712637
C       3.90983112      1.45557038      1.99678002
C       2.86842083      0.97228872      2.78543625
C       1.71956950      0.45006517      2.18560364
C       1.60130033      0.40619008      0.78702076
H      -3.55978436      2.78885562     -0.76198570
H      -3.72855923      1.34584836     -1.77786130
H      -2.12847088      1.84617130     -1.20913452
H      -4.42680174      0.92134804      0.60343115
H      -2.82564065      1.39805642      1.15525720
H      -1.58928665     -4.55845105      0.03697042
H      -0.50371227     -3.60335431      1.05515744
H      -0.30575926     -3.58805179     -0.70812233
H      -0.54502951     -0.55383127     -1.83201981
H       2.11477008      0.68001419     -3.75718172
H       4.62065559      1.79654152     -0.00434702
H       4.80430319      1.86216969      2.46358316
H       2.94810513      1.00079487      3.87013463
H       0.91844251      0.07824792      2.82230053
