21
CCCc1ccccc1
C      -3.31951195      0.12787150     -0.22842201
C      -1.84679460      0.50049731     -0.16542009
C      -0.96451048     -0.73700403      0.00272967
C       0.49808432     -0.37435830      0.06597778
C       1.26243087     -0.29694346     -1.10585356
C       2.61199878      0.05463541     -1.04803802
C       3.20819879      0.33630912      0.17971939
C       2.45518309      0.26877493      1.35044095
C       1.10548996     -0.08263191      1.29453877
H      -3.93297954      1.02625632     -0.34873342
H      -3.63545971     -0.37884252      0.68903936
H      -3.52013990     -0.53635083     -1.07510642
H      -1.68744760      1.19444360      0.66888327
H      -1.57303682      1.03819004     -1.08136670
H      -1.13053285     -1.43591797     -0.82698041
H      -1.24436448     -1.28048953      0.91419448
H       0.80941474     -0.50961830     -2.07141523
H       3.19763634      0.11018783     -1.96177278
H       4.25874757      0.61045209      0.22393084
H       2.91847878      0.49139148      2.30792064
H       0.52911469     -0.12685279      2.21573350
