31
C=CC(C)CCCC(C)(C)O
C       3.27462081     -0.33306873     -1.73348196
C       2.92536207      0.41397479     -0.67816327
C       2.47916511     -0.15348013      0.64839401
C       3.46201642      0.27842966      1.73988099
C       1.05142396      0.29808862      1.01315841
C      -0.01575802     -0.24628241      0.05353883
C      -1.42293172      0.17963339      0.49488737
C      -2.56548072     -0.40878253     -0.35921933
C      -2.46763258     -0.00003155     -1.82961272
C      -3.91911260      0.03022035      0.20900720
O      -2.51062041     -1.83599399     -0.30708121
H       3.58685120      0.13115006     -2.66387110
H       3.25463527     -1.41789151     -1.69697165
H       2.96071109      1.49833313     -0.76865686
H       2.49324480     -1.25067138      0.60586832
H       4.48008004     -0.05256300      1.50569749
H       3.48018925      1.36797664      1.85728049
H       3.18522329     -0.15894571      2.70529176
H       0.81900228     -0.04706567      2.02899576
H       0.99741977      1.39455312      1.03436903
H       0.05122447     -1.33985734      0.02118487
H       0.17828596      0.12537725     -0.95768899
H      -1.48560499      1.27532066      0.48992751
H      -1.56059379     -0.14337052      1.53550770
H      -3.32496805     -0.38265418     -2.39596999
H      -2.43860170      1.08828399     -1.94420213
H      -1.58079349     -0.42914320     -2.30775266
H      -4.74407695     -0.42982732     -0.34700617
H      -4.03089058     -0.29500227      1.24970813
H      -4.03823597      1.11796370      0.17163081
H      -2.57415421     -2.10446032      0.62534937
