18
Oc1c(Br)cc(Br)c2cccnc12
O      -1.35732778     -2.54516609     -0.12567870
C      -1.22608213     -1.17496192     -0.04849846
C      -2.35736230     -0.36440234      0.01634062
Br     -4.10649091     -1.09202300      0.00203101
C      -2.20884980      1.01500954      0.09376244
C      -0.92646443      1.57060435      0.10553990
Br     -0.82137625      3.46931892      0.21368153
C       0.23141411      0.75173303      0.03980607
C       1.56459057      1.22101495      0.04578311
C       2.63222496      0.33187028     -0.02258388
C       2.34868436     -1.01534260     -0.09599517
N       1.09519795     -1.51594790     -0.10504685
C       0.06307279     -0.64720046     -0.03842644
H      -0.43363542     -2.87580522     -0.15942427
H      -3.08653344      1.65493306      0.14470109
H       1.78680472      2.28360562      0.10371041
H       3.65731445      0.68567141     -0.01840053
H       3.14481853     -1.75291162     -0.15130188
