20
CCNC(=S)NCC
C      -3.19061186     -0.14621672     -0.45174504
C      -2.22501730      0.95085968     -0.04427547
N      -0.85392342      0.45878363     -0.00828825
C       0.21461653      1.13975589      0.50294105
S       0.16699908      2.60933909      1.29098872
N       1.42570348      0.52709141      0.37362609
C       1.69292520     -0.83981658     -0.03975326
C       3.17600189     -1.15443158      0.00019903
H      -4.21593191      0.23520071     -0.47342869
H      -2.94715696     -0.53351874     -1.44670396
H      -3.14906460     -0.98438372      0.25173114
H      -2.26666470      1.77860534     -0.76032788
H      -2.49701328      1.33477439      0.94413326
H      -0.62162823     -0.21325679     -0.72350207
H       2.17156497      1.02613834      0.84747877
H       1.31241160     -0.97474152     -1.05733880
H       1.13873962     -1.51096961      0.62483171
H       3.73593340     -0.48508411     -0.66131754
H       3.57480463     -1.03297825      1.01281351
H       3.35731185     -2.18515085     -0.31910188
