46
O[C@]12COC(c3ccccc3)O[C@@H]1[C@H]1OC(c3ccccc3)OC[C@H]1O2
O      -1.32662514     -3.07797208     -0.02832813
C      -0.71468711     -2.21405547      0.93563910
C      -1.69767105     -1.99646004      2.07769171
O      -2.87286488     -1.35119086      1.54720714
C      -2.57821305     -0.10902140      0.88406107
C      -3.85730489      0.49098360      0.32685953
C      -3.81909182      1.38263282     -0.75944208
C      -4.98787020      1.97050093     -1.24917162
C      -6.21383761      1.68652925     -0.65373267
C      -6.27163771      0.81882171      0.43371341
C      -5.10278148      0.23100738      0.92375562
O      -1.63753489     -0.30035904     -0.19146089
C      -0.43865264     -0.84378473      0.34209591
C       0.66625152     -1.20841882     -0.63513552
O       1.49891482     -0.12971873     -1.04552669
C       2.26681443      0.47658957     -0.00291096
C       3.56940755      1.04914426     -0.54307169
C       4.58647621      1.44471143      0.34372271
C       5.77834468      1.99670009     -0.13045653
C       5.96897452      2.17200341     -1.49853905
C       4.96757240      1.79970780     -2.39192496
C       3.77518901      1.24704991     -1.91809685
O       2.52401310     -0.39117165      1.10715710
C       2.73987453     -1.73950335      0.68613725
C       1.43128616     -2.29554848      0.14592689
O       0.57500734     -2.71076083      1.25598338
H      -2.16095266     -2.63327418     -0.27847647
H      -1.27273082     -1.39345656      2.88827113
H      -2.01227362     -2.95353797      2.50615604
H      -2.16877866      0.60275176      1.61400137
H      -2.87140212      1.62182214     -1.23869626
H      -4.93918469      2.64932185     -2.09631490
H      -7.12337571      2.14215240     -1.03584889
H      -7.22682705      0.59756842      0.90242291
H      -5.17248640     -0.43985476      1.77791725
H      -0.05023504     -0.14704643      1.09612047
H       0.23465216     -1.62840563     -1.55131312
H       1.68544777      1.32373872      0.38017183
H       4.45328965      1.31805181      1.41682954
H       6.55640049      2.29038953      0.56921275
H       6.89601689      2.60184510     -1.86849507
H       5.11206663      1.94082516     -3.45998543
H       3.00471507      0.97071388     -2.63548975
H       3.07436579     -2.30871647      1.55892175
H       3.53301588     -1.76984734     -0.06947115
H       1.61892265     -3.18345809     -0.46729439
