19
CC(=O)Nc1ccc(F)cc1
C       3.43439955     -0.52535854      0.08131613
C       2.04129964     -0.39337648      0.64524965
O       1.83275204     -0.55263548      1.84233803
N       1.10470307     -0.11557076     -0.33436404
C      -0.28342076      0.06773784     -0.16766723
C      -1.03589460      0.33087808     -1.32269741
C      -2.41728656      0.52553078     -1.24320282
C      -3.04713682      0.45754354     -0.00819664
F      -4.37092134      0.64397090      0.06954193
C      -2.32058660      0.19904415      1.14587126
C      -0.93766547      0.00417592      1.06643016
H       4.16579517     -0.33271075      0.87154748
H       3.57445214     -1.53859401     -0.30417999
H       3.60270364      0.20026773     -0.71968404
H       1.44995802     -0.04226725     -1.28300374
H      -0.56013254      0.38783618     -2.29821442
H      -3.00283290      0.72891716     -2.13390845
H      -2.82880271      0.14954757      2.10370114
H      -0.40138297     -0.19493656      1.98912299
