68
C[C@H](CCC(=O)O)[C@H]1CC[C@H]2[C@@H]3C[C@H](O)[C@@H]4C[C@H](O)CC[C@]4(C)[C@H]3CC[C@@]21C
C       4.04152125      0.86410602     -1.49718257
C       3.96651604     -0.23851589     -0.43711511
C       4.97417899     -1.37880614     -0.76158444
C       6.44290396     -0.96671189     -0.88553256
C       6.97970613     -0.34492990      0.37425503
O       6.69764707     -0.64743406      1.52057639
O       7.88361085      0.62012738      0.12030896
C       2.52857065     -0.82537061     -0.29644010
C       2.45216526     -1.90907599      0.82077359
C       1.03055789     -1.87449233      1.39508886
C       0.27844173     -0.95219306      0.44913869
C      -1.05641793     -0.35880063      0.91999617
C      -2.03327639     -1.45420018      1.35573436
C      -3.36435014     -0.85521553      1.78970920
O      -4.24841742     -1.89238065      2.20820213
C      -4.03280531     -0.00992153      0.69062290
C      -4.64865542     -0.85277280     -0.44172187
C      -5.55563655     -0.00211945     -1.33905879
O      -5.45455524     -0.50721955     -2.67017522
C      -5.19736920      1.48684083     -1.32413437
C      -3.68668560      1.68295621     -1.21707634
C      -3.07764401      1.08901916      0.09817388
C      -2.96595304      2.23228786      1.13658496
C      -1.66187351      0.48036011     -0.23905374
C      -0.64159872      1.51920096     -0.77113883
C       0.72665760      0.90696645     -1.12361272
C       1.33149033      0.11598781      0.05237028
C       1.70598679      1.07807965      1.20569619
H       3.45829600      1.73812212     -1.20324835
H       5.06127976      1.23427401     -1.63024657
H       3.67861704      0.50897049     -2.46664394
H       4.25615452      0.20386721      0.52377394
H       4.67489641     -1.86304994     -1.69998643
H       4.91513410     -2.14983262      0.01520984
H       6.57963325     -0.28094494     -1.72709869
H       7.05402469     -1.85143351     -1.09603582
H       8.14587738      0.94832432      1.00606013
H       2.29004117     -1.32580907     -1.24760917
H       2.67310454     -2.89841422      0.40416195
H       3.17324741     -1.72041620      1.62466315
H       1.03884242     -1.48329136      2.41840422
H       0.59300195     -2.87784498      1.42765572
H       0.05306032     -1.55783850     -0.44544365
H      -0.87740394      0.28736352      1.78624302
H      -2.18950141     -2.18410283      0.55116690
H      -1.61485158     -2.02815306      2.19234200
H      -3.19687273     -0.22194369      2.66922329
H      -3.78975761     -2.41633621      2.88710205
H      -4.88510841      0.48242937      1.18283071
H      -5.25156178     -1.67556408     -0.03931899
H      -3.86202557     -1.33398037     -1.03503819
H      -6.60024563     -0.12182041     -1.02761839
H      -6.09692833     -0.02072367     -3.21503725
H      -5.68525059      1.98170572     -0.47565991
H      -5.56067646      1.97700566     -2.23474811
H      -3.45548640      2.75179918     -1.30081167
H      -3.23260597      1.20947619     -2.09734995
H      -2.47654812      1.90790250      2.05928999
H      -2.40192127      3.08606018      0.74653366
H      -3.95871950      2.61075101      1.40720072
H      -1.82010712     -0.22459303     -1.06964236
H      -1.03416988      2.00515003     -1.67177369
H      -0.49065903      2.31638754     -0.03653329
H       0.60353835      0.24916289     -1.99370181
H       1.38467761      1.71858267     -1.44305697
H       0.84358661      1.61760215      1.60446154
H       2.41763034      1.83735622      0.86597366
H       2.17104141      0.55802744      2.04881741
