18
C[N+](C)(C)C.[Cl-]
C       0.94055939     -0.73516344      0.94405159
N       0.00000011      0.00000000      0.00000000
C      -0.89478362     -1.00595230     -0.70976957
C      -0.86018381      0.97135514      0.79555237
C       0.81440807      0.76976075     -1.02983434
Cl      0.00000000      0.00000000      0.00000000
H       0.33896238     -1.28198538      1.67614766
H       1.57503512      0.00220056      1.44468431
H       1.55001721     -1.42777158      0.35604368
H      -1.47174792     -1.54913754      0.04452441
H      -0.26069654     -1.69492763     -1.27558184
H      -1.56298144     -0.46078670     -1.38297393
H      -0.20153811      1.68581463      1.29817612
H      -1.43761410      0.40163344      1.52964289
H      -1.52884424      1.48998459      0.10214446
H       0.12327201      1.29109455     -1.69874400
H       1.45057851      1.48692754     -0.50271322
H       1.42555698      0.05695335     -1.59135057
