49
COc1cc(CNC(=O)CCCC/C=C/C(C)C)ccc1O
C      -5.60638859      0.83706956      2.25718229
O      -6.30824958      0.23996302      1.17151906
C      -5.55681077     -0.49650423      0.29188584
C      -4.18394354     -0.72785595      0.37380452
C      -3.52924476     -1.50487824     -0.60141234
C      -2.03919892     -1.71985123     -0.51516462
N      -1.32566661     -0.58217508     -1.04972258
C      -0.86504237      0.43117597     -0.23702199
O      -0.95113325      0.41071307      0.98542767
C      -0.27105133      1.58688757     -1.02258278
C       0.47025618      2.60288205     -0.15358392
C       1.78219287      2.09416210      0.45788359
C       2.85838150      1.78116693     -0.58502109
C       4.16206088      1.42142675      0.07045292
C       4.75737637      0.22419542     -0.05147208
C       6.06652026     -0.13406736      0.60817604
C       7.11156510     -0.48693401     -0.44955014
C       5.86734684     -1.29872151      1.57750351
C      -4.26899668     -2.03995708     -1.66706622
C      -5.64216348     -1.81537712     -1.75262439
C      -6.26876265     -1.05045932     -0.77727078
O      -7.61745469     -0.84296727     -0.88656404
H      -4.85612077      1.54958101      1.89858180
H      -6.33283958      1.39322799      2.85752506
H      -5.15560989      0.07543059      2.90193397
H      -3.58764360     -0.31364868      1.18278113
H      -1.74182740     -1.91194939      0.52200088
H      -1.74402978     -2.59483967     -1.10474220
H      -1.40776017     -0.40734962     -2.04191431
H       0.37941562      1.19617093     -1.81137120
H      -1.10850009      2.09682185     -1.51508526
H       0.68467590      3.49195795     -0.75943182
H      -0.18654196      2.93359915      0.66063950
H       2.15647610      2.86889423      1.14005712
H       1.59351463      1.20710199      1.07408726
H       3.02332615      2.65633350     -1.22456949
H       2.52731661      0.96592901     -1.23759037
H       4.63284314      2.19859492      0.66978608
H       4.28433959     -0.55157112     -0.65147203
H       6.44167617      0.72314577      1.18178208
H       7.27403158      0.35204119     -1.13533887
H       8.07230426     -0.72424438      0.02005172
H       6.80546093     -1.35437625     -1.04538973
H       6.80826797     -1.54994289      2.07891857
H       5.13489699     -1.04351071      2.35155448
H       5.51158990     -2.19737791      1.06068604
H      -3.78206962     -2.63631454     -2.43513570
H      -6.22115306     -2.23052643     -2.57200862
H      -7.84763239     -0.29467564     -0.11111456
