31
NC(=O)N/N=C/C(O)C(O)C(O)C(O)CO
N       5.62375676      1.78777015      0.08691798
C       4.40827038      1.59753113      0.68007791
O       4.08649557      2.25175260      1.66248126
N       3.66589186      0.62457072      0.04761587
N       2.41597955      0.32584080      0.50328955
C       1.72696217     -0.47218512     -0.24930274
C       0.31917916     -0.87579460      0.17181376
O      -0.05621365     -0.14099755      1.33484866
C      -0.65097588     -0.60238010     -0.98837528
O      -0.18420525     -1.31191346     -2.15806582
C      -2.10052119     -1.06160358     -0.73928796
O      -2.09730237     -2.51127136     -0.70421868
C      -2.81406034     -0.53888951      0.51825132
O      -4.15606264     -1.08306358      0.47616005
C      -2.91459900      0.98546998      0.59370274
O      -3.66649160      1.45281898     -0.52997727
H       6.19838749      2.42876454      0.62231081
H       6.11319789      0.94853591     -0.18855911
H       3.91121052      0.40081592     -0.90894658
H       2.12501084     -0.91151543     -1.18095628
H       0.35269929     -1.94360602      0.41343936
H       0.78378413      0.17868916      1.73315295
H      -0.64505767      0.46645986     -1.23102169
H      -0.62809339     -2.18752205     -2.11197486
H      -2.69762694     -0.81873348     -1.62772089
H      -2.97896658     -2.74712580     -0.34325986
H      -2.36230074     -0.94997964      1.42521742
H      -4.65790248     -0.46810615     -0.09858565
H      -1.93698159      1.47270739      0.59135573
H      -3.46185771      1.28077430      1.49471157
H      -3.72160657      2.42218602     -0.44154015
