20
C=C[Si](C)(OC)OC
C       2.47663148     -1.16578218     -0.50912624
C       1.41096425     -1.29398378      0.29235444
Si      0.00116246     -0.08881530      0.44095472
C      -0.17251923      0.37410998      2.24938290
O      -1.40812803     -0.79688933     -0.11585751
C      -1.45214515     -1.26603122     -1.45487795
O       0.31244384      1.25981832     -0.49996589
C      -0.63151406      2.31856114     -0.50770601
H       3.25107732     -1.92668291     -0.52816171
H       2.60804165     -0.30635050     -1.16232008
H       1.30673252     -2.16320682      0.93195238
H      -0.33944042     -0.51641831      2.86283323
H      -1.01953392      1.05048051      2.39737420
H       0.73112468      0.87427402      2.61034830
H      -1.25145582     -0.46154749     -2.17136909
H      -0.75346380     -2.09553118     -1.60969620
H      -2.46227656     -1.64075787     -1.64804588
H      -0.71738454      2.78143733      0.48153224
H      -0.27619872      3.08372255     -1.20503380
H      -1.61411795      1.97959304     -0.85457205
