22
O=[N+]([O-])c1cc([N+](=O)[O-])c2ccccc2c1Cl
O       3.67723101      0.83391416      1.91102063
N       3.41067713      0.42844583      0.77356656
O       4.22298661      0.15163609     -0.11628452
C       2.01139034      0.32937357      0.43436030
C       1.34786054      1.51175291      0.12459717
C      -0.00563939      1.42840744     -0.20596367
N      -0.66884310      2.68400039     -0.51749534
O      -0.24844491      3.30455703     -1.50155933
O      -1.57598348      3.04908392      0.23962691
C      -0.71955220      0.20013197     -0.25063758
C      -2.08888883      0.09733589     -0.61203072
C      -2.75397547     -1.12689480     -0.64332891
C      -2.07154275     -2.28544531     -0.31786061
C      -0.72369749     -2.21917367      0.03544263
C      -0.01108835     -0.99426891      0.07725937
C       1.36967056     -0.91397989      0.42732744
Cl      2.25430701     -2.34963798      0.86060830
H       1.86700615      2.46864061      0.14080579
H      -2.67247107      0.97932447     -0.87644331
H      -3.80480100     -1.17036704     -0.92080589
H      -2.58254273     -3.24541088     -0.33855306
H      -0.23365857     -3.16142578      0.27822068
