16
COCCOC
C      -2.95414089     -0.35622004     -0.50333283
O      -1.74080529      0.32932084     -0.22268474
C      -0.63680905     -0.57282833     -0.15098288
C       0.63680444      0.20864971      0.15101640
O       1.74080810     -0.69349436      0.22266790
C       2.95414596     -0.00795153      0.50330370
H      -2.89199158     -0.86508242     -1.47009611
H      -3.17919329     -1.07683934      0.28881102
H      -3.76249883      0.37856959     -0.54686164
H      -0.81055031     -1.31779698      0.63485115
H      -0.52704890     -1.10886624     -1.10141151
H       0.81052461      0.95364940     -0.63479357
H       0.52705583      0.74465280      1.10146633
H       3.76250804     -0.74273818      0.54681462
H       3.17918216      0.71267435     -0.28883897
H       2.89200901      0.50090290      1.47007112
