26
Oc1ccc(Cc2ccccc2)cc1
O       4.42138426      0.64063297     -1.73970038
C       3.28223136      0.16053885     -1.16408058
C       2.83879709      0.63101918      0.06707290
C       1.66580140      0.11066711      0.61883131
C       0.93243122     -0.87628101     -0.05893679
C      -0.33508398     -1.44337799      0.54152095
C      -1.44881526     -0.43412909      0.70986113
C      -2.03483218      0.17596214     -0.40915433
C      -3.06645859      1.10296257     -0.25265721
C      -3.52550238      1.42771771      1.02219057
C      -2.95360556      0.82630189      2.14161312
C      -1.92102237     -0.10059937      1.98744204
C       1.40062569     -1.33752210     -1.29824800
C       2.57365314     -0.81855812     -1.84891034
H       4.79550409      1.32184496     -1.15757618
H       3.38466982      1.39668945      0.60849155
H       1.31923698      0.48447709      1.58006661
H      -0.07929615     -1.89677739      1.50821691
H      -0.71515271     -2.26889549     -0.07458666
H      -1.68429636     -0.06443245     -1.41063297
H      -3.51004595      1.57261051     -1.12658707
H      -4.32850243      2.14984128      1.14299148
H      -3.31214253      1.07910103      3.13594947
H      -1.48718909     -0.56028638      2.87244836
H       0.85504911     -2.10289977     -1.84514165
H       2.93256138     -1.17660756     -2.80947140
