55
C=CCN(CC=C)c1cc(NC(C)=O)c(N=Nc2c(Cl)cc([N+](=O)[O-])cc2[N+](=O)[O-])cc1OC
C      -5.20342288      1.56779025     -2.62193670
C      -4.24965539      0.76321870     -2.13090427
C      -4.41521286     -0.13452326     -0.93585428
N      -3.60227711      0.38410640      0.17664377
C      -4.12147551      0.05289014      1.50911037
C      -5.16055037      1.08187060      1.85721813
C      -6.43900477      0.81811461      2.16043619
C      -2.22173142      0.06729804      0.05169704
C      -1.35701790      1.14196594     -0.24476636
C       0.02061078      0.96054074     -0.39201793
N       0.91680891      2.01574084     -0.69777456
C       0.61889824      3.34647576     -0.92092306
C       1.85010195      4.16611296     -1.21324163
O      -0.48849897      3.87078138     -0.89589899
C       0.55074014     -0.33449930     -0.22713791
N       1.93060540     -0.58792974     -0.40171861
N       2.48370260     -0.73980239      0.71101193
C       3.83173051     -1.11358581      0.53070613
C       4.20313611     -2.47016106      0.47053173
Cl      3.01726856     -3.72716165      0.56749154
C       5.54391307     -2.85930393      0.34455866
C       6.54668587     -1.88324130      0.29567814
N       7.95271132     -2.29024756      0.17580292
O       8.18714471     -3.49245080      0.00285585
O       8.81124417     -1.40148886      0.25654516
C       6.22075189     -0.52607419      0.36659790
C       4.86836687     -0.16927193      0.48125842
N       4.55252861      1.24137220      0.55969565
O       5.07598507      1.87816478      1.48110158
O       3.82715723      1.71392603     -0.32620162
C      -0.30475298     -1.41358472      0.05863188
C      -1.68169302     -1.22903349      0.20331553
O      -2.56520869     -2.23963428      0.49124480
C      -2.05679655     -3.56455159      0.55611399
H      -6.18366013      1.63455300     -2.16058859
H      -5.00666253      2.19218626     -3.48861090
H      -3.27836821      0.74033262     -2.61944603
H      -4.15770994     -1.16653688     -1.20437508
H      -5.47589860     -0.15269199     -0.65091410
H      -3.33836532      0.11359853      2.27581629
H      -4.54109509     -0.96016902      1.53929534
H      -4.82005049      2.11387693      1.84967353
H      -7.12828568      1.62386532      2.39395987
H      -6.82310038     -0.19618452      2.17592097
H      -1.81225711      2.12254710     -0.35444896
H       1.90185258      1.75694376     -0.73980610
H       1.55271578      5.16349209     -1.55163893
H       2.44979096      4.26655770     -0.30531667
H       2.44028429      3.69658130     -2.00566757
H       5.79222747     -3.91937809      0.30420966
H       6.99243981      0.24383473      0.34271245
H       0.14689994     -2.39401630      0.16372703
H      -1.60162902     -3.86115078     -0.39337684
H      -2.89970906     -4.23614497      0.74260846
H      -1.35221286     -3.67592031      1.38639480
