20
CCC(CC)O[N+](=O)[O-]
C      -1.70316600     -1.73111047      0.18828077
C      -1.11021415     -0.68794808     -0.74556037
C      -0.09204984      0.24553221     -0.06653390
C       1.18341055     -0.51423717      0.34377527
C       2.20886784      0.39558215      1.01087496
O       0.30760265      1.24701769     -1.01050430
N      -0.51507115      2.39974187     -1.02058897
O      -0.12225702      3.25375416     -1.81327934
O      -1.49269460      2.41135224     -0.27197320
H      -2.48979940     -2.29142404     -0.32745438
H      -2.14705152     -1.26053184      1.07112404
H      -0.95033384     -2.45173868      0.51953566
H      -0.64353545     -1.18460769     -1.60555491
H      -1.93001806     -0.09291236     -1.16564996
H      -0.51661734      0.68394800      0.84584311
H       1.65019252     -0.96417194     -0.54097020
H       0.93960750     -1.32441984      1.03858971
H       1.78656735      0.87460178      1.89991648
H       3.08220195     -0.18666309      1.32169346
H       2.55435802      1.17823510      0.32843607
