49
Cn1nnnc1SCC1=C(C(=O)O)N2C(=O)[C@@H](NC(=O)[C@H](O)c3ccccc3)[C@H]2SC1
C      -7.50809903      0.06173145      3.73389199
N      -7.34912372      0.83555256      2.53636569
N      -8.29929367      1.70669685      2.15655570
N      -7.85508290      2.22519735      1.01917838
N      -6.61245589      1.73025561      0.69989565
C      -6.31928209      0.86912756      1.64275647
S      -4.86780858     -0.05421483      1.79689889
C      -3.91767586      0.61295523      0.38887195
C      -2.51044218      0.04674632      0.38815316
C      -2.01162483     -0.71690936     -0.61299030
C      -2.79236379     -1.01337264     -1.84510413
O      -3.08875479     -2.12373338     -2.24616957
O      -3.11581353      0.10835759     -2.51270470
N      -0.76550861     -1.27415084     -0.55120756
C       0.16768155     -1.42784109     -1.52394162
O       0.10171680     -1.40360805     -2.72940066
C       1.29643120     -1.50074367     -0.45556182
N       2.41495362     -0.53923864     -0.59898082
C       3.39684055     -0.44007492      0.36792654
O       3.47330476     -1.22325653      1.31343635
C       4.36571328      0.74205996      0.15760106
O       3.64084472      1.82854976     -0.44503667
C       5.57400827      0.35105529     -0.67324808
C       5.94009340      1.05690762     -1.82985248
C       7.06999774      0.69229639     -2.56605938
C       7.85576480     -0.37895948     -2.15480384
C       7.51711921     -1.08155655     -1.00266103
C       6.38628945     -0.71790739     -0.26601265
C       0.16240705     -1.13455182      0.55579922
S       0.10203102      0.58498123      1.16168651
C      -1.66694974      0.48627656      1.56687488
H      -8.47447106      0.28910891      4.19358658
H      -7.46581298     -0.99706959      3.47565488
H      -6.70792057      0.32141190      4.42938246
H      -4.47937203      0.35050452     -0.50838251
H      -3.87078004      1.70670187      0.44281412
H      -3.52709851     -0.22010987     -3.33878306
H       1.67510026     -2.52514795     -0.34373370
H       2.38807080      0.20790727     -1.29424461
H       4.70784826      1.09505443      1.14163050
H       3.02802974      2.15311995      0.24135229
H       5.34765157      1.90740638     -2.16526520
H       7.33738774      1.24798174     -3.46224857
H       8.73723256     -0.66110073     -2.72756397
H       8.13470635     -1.91258056     -0.66982373
H       6.14498068     -1.28284794      0.63479562
H       0.01193980     -1.89221309      1.33349659
H      -1.81279392     -0.18819148      2.41645173
H      -1.95961688      1.49143608      1.88846069
