22
OCCCc1ccccc1
O       3.53468459     -0.57171221      0.69309647
C       2.32089889      0.09794461      0.37234884
C       1.78970995     -0.45815079     -0.94241176
C       0.55286285      0.28260499     -1.45288068
C      -0.64699953      0.16834593     -0.54509268
C      -1.12881790      1.29066227      0.14226226
C      -2.23506048      1.18262774      0.98686864
C      -2.87096709     -0.04625735      1.15136351
C      -2.40274620     -1.16787325      0.47014728
C      -1.29708641     -1.06165989     -0.37500650
H       3.82270692     -0.23527887      1.55893253
H       2.53011030      1.16911356      0.28938283
H       1.61302882     -0.06652410      1.19030879
H       1.58515088     -1.52985281     -0.82611496
H       2.58024049     -0.39346589     -1.70109524
H       0.80254736      1.33861822     -1.61621918
H       0.27578949     -0.11383796     -2.43812208
H      -0.64673367      2.25843164      0.02474716
H      -2.60204348      2.05848650      1.51546347
H      -3.73263580     -0.12956511      1.80825548
H      -2.89919298     -2.12653525      0.59558524
H      -0.94544699     -1.94612197     -0.90181942
