44
C[C@]12CC[C@@H]3[C@H]4CCC(=O)C=C4CC[C@H]3[C@@H]1CCC2=O
C      -2.89851861      1.43244525      0.14200110
C      -2.42614836      0.13296263      0.81965421
C      -1.51689174      0.42870116      2.00767189
C      -0.15364543      0.97209333      1.54181981
C       0.53807875      0.09895324      0.46122956
C       1.84418129      0.75049225     -0.08726436
C       2.84416523      1.00279651      1.06165852
C       4.24209785      1.33352508      0.56566889
C       4.74361542      0.24331253     -0.34455936
O       5.92581255     -0.08476379     -0.39528250
C       3.77172399     -0.37368209     -1.27632360
C       2.45831035     -0.09942231     -1.19330155
C       1.51442700     -0.60253239     -2.25757593
C       0.26094584     -1.24020134     -1.66829871
C      -0.43302187     -0.27615335     -0.69947105
C      -1.69922115     -0.87878070     -0.09024449
C      -2.79817339     -1.42252362     -0.99628099
C      -3.95292973     -1.67401618     -0.01491270
C      -3.67310545     -0.68474734      1.10394724
O      -4.38299066     -0.55157493      2.09172101
H      -3.59442543      1.24488255     -0.68269661
H      -2.07307390      2.02913465     -0.25481215
H      -3.43691961      2.06047133      0.86232065
H      -1.35866120     -0.48293238      2.59874359
H      -1.98789528      1.14888019      2.68775950
H       0.48921177      1.05086547      2.42591895
H      -0.27785791      1.99241699      1.15994177
H       0.82312572     -0.84064223      0.96035477
H       1.58677840      1.72067365     -0.53525810
H       2.49404881      1.82913979      1.69073466
H       2.89975725      0.11340455      1.70404705
H       4.25560031      2.28128770      0.01688514
H       4.92157754      1.41848981      1.42051162
H       4.20130319     -0.99077070     -2.05762312
H       2.00618172     -1.32936501     -2.91544425
H       1.22475849      0.24628713     -2.89032061
H       0.52369434     -2.17317449     -1.15339510
H      -0.41534877     -1.50665558     -2.48861098
H      -0.68972004      0.63003126     -1.26209037
H      -1.37587588     -1.73626952      0.52548066
H      -3.08503370     -0.69701548     -1.76510786
H      -2.50692466     -2.34761735     -1.50334915
H      -3.90989122     -2.68846649      0.39175608
H      -4.92312182     -1.47993978     -0.47707422
