45
CC(C)(C)c1ccc(CCOc2ncnc3ccccc23)cc1
C      -5.19313523      0.32480916     -2.15263328
C      -5.13073859      0.22755670     -0.61295165
C      -6.00545152     -0.95479366     -0.14282811
C      -5.76592254      1.51816352     -0.04772559
C      -3.67520821      0.00378993     -0.16742465
C      -2.96910047     -1.13353553     -0.60372658
C      -1.64511445     -1.36769166     -0.21837436
C      -0.98322223     -0.47089886      0.62221781
C       0.44867689     -0.70726943      1.02208626
C       1.43696132     -0.07899918      0.04036872
O       2.75922737     -0.36102648      0.51092727
C       3.76174688      0.15600499     -0.29379106
N       3.41506923      0.84551303     -1.39539755
C       4.43608967      1.31201195     -2.11949189
N       5.73957431      1.15574059     -1.84913589
C       6.05151334      0.46432189     -0.74508021
C       7.38921601      0.27311729     -0.41862755
C       7.77862872     -0.43950772      0.72044043
C       6.81410286     -0.97926979      1.56193029
C       5.46722326     -0.80207400      1.25758287
C       5.08065832     -0.07937734      0.10255599
C      -1.66672480      0.66590829      1.06016517
C      -2.99219861      0.89754217      0.67260395
H      -6.21621768      0.51922958     -2.49529734
H      -4.86256524     -0.59887118     -2.64015156
H      -4.55722025      1.13785363     -2.52258616
H      -7.05590316     -0.80311640     -0.41754376
H      -5.69236004     -1.90524797     -0.58861822
H      -5.95894996     -1.07112986      0.94648062
H      -5.21920699      2.41188427     -0.37043113
H      -6.80095270      1.63253215     -0.39173307
H      -5.79021658      1.50944393      1.04822750
H      -3.44454766     -1.86094543     -1.25828109
H      -1.13775693     -2.25821218     -0.58292815
H       0.62598384     -0.31406166      2.03176558
H       0.64165962     -1.78485356      1.10623158
H       1.27491319      1.00583804     -0.00289754
H       1.29106099     -0.51175922     -0.95784829
H       4.18748678      1.87248266     -3.01436624
H       8.15300855      0.69155082     -1.07069313
H       8.83467040     -0.56880212      0.94375142
H       7.10719196     -1.53446374      2.44918712
H       4.71101563     -1.22449374      1.91611320
H      -1.17395245      1.38656498      1.70960231
H      -3.46901285      1.79854113      1.04831321
