16
O=c1[nH]c(=O)c2[nH]c(=O)[nH]c2[nH]1
O       3.21199543     -1.14504445     -0.10160346
C       2.12113230     -0.58899376     -0.04309750
N       2.00009057      0.77129223      0.14982657
C       0.82145490      1.48375329      0.22907290
O       0.76772765      2.69439828      0.40182998
C      -0.37434853      0.65132734      0.08619085
N      -1.69414214      0.99484155      0.10970980
C      -2.44962229     -0.17630113     -0.07319372
O      -3.65918959     -0.28471964     -0.11240287
N      -1.49437630     -1.20863379     -0.20272840
C      -0.25264251     -0.66299900     -0.10012227
N       0.94170513     -1.28594815     -0.16621089
H       2.85879759      1.29300255      0.24151167
H      -2.06874849      1.92360913      0.23572621
H      -1.73926442     -2.17501770     -0.34625384
H       1.00943069     -2.28456674     -0.30825503
