30
CC12CCC(C(=NO)C1=NO)C2(C)C
C      -1.28651144      1.73112364     -0.87151349
C      -0.35355809      0.57221001     -0.60180162
C      -0.35560828     -0.52219828     -1.70504214
C       0.21752590     -1.77537934     -0.98578258
C       0.47836916     -1.28433733      0.45506085
C       1.65837601     -0.34885337      0.32244910
N       2.88748384     -0.50544673      0.69043416
O       3.06240225     -1.75163521      1.30150995
C       1.13581802      0.85876627     -0.38091827
N       1.90627550      1.83985070     -0.72289739
O       1.22187178      2.82642514     -1.42901687
C      -0.66621602     -0.26060408      0.69405868
C      -0.52367398      0.53021002      2.01307594
C      -2.05988399     -0.92140496      0.72847485
H      -1.11554065      2.15717785     -1.86556045
H      -1.15410535      2.53100849     -0.13574715
H      -2.33485813      1.41774430     -0.84189484
H       0.27152502     -0.24570695     -2.56072345
H      -1.36295060     -0.72452605     -2.08483908
H      -0.50889487     -2.59444048     -1.00491651
H       1.13139585     -2.12589794     -1.47859429
H       0.58886647     -2.06540602      1.20674694
H       4.01315957     -1.74110734      1.52251034
H       1.92510937      3.47892639     -1.60884640
H      -1.32627608      1.26992978      2.11062059
H       0.42081816      1.07470812      2.10330810
H      -0.58686347     -0.14661291      2.87289404
H      -2.31856309     -1.46697139     -0.18186616
H      -2.12123156     -1.63586457      1.55763324
H      -2.84426129     -0.17168772      0.88118390
