17
N[C@H](C(=O)O)[C@@H](O)C(=O)O
N      -1.29132089      0.82467922      1.00685896
C      -0.68752961      0.66306508     -0.36073539
C      -1.47194460     -0.39440147     -1.13832656
O      -1.07829206     -0.95612798     -2.14836644
O      -2.69462054     -0.60604111     -0.58601485
C       0.81609386      0.35202890     -0.38857175
O       1.52772097      1.42524633      0.24603556
C       1.15788390     -0.96657375      0.29644567
O       0.39029951     -1.75217022      0.82470772
O       2.49363454     -1.18219680      0.31895663
H      -0.78248210      1.60168859      1.44701257
H      -1.00616526      0.00937312      1.56791555
H      -0.86112383      1.61700914     -0.87396179
H      -2.73378312     -0.04017295      0.22617788
H       1.16005316      0.28613549     -1.42776285
H       2.47043192      1.16743219      0.21924616
H       2.59114416     -2.04897378      0.77038293
