16
Nc1ccccc1N
N      -1.84145168     -1.22805956      0.18627876
C      -0.55981251     -0.65170884      0.02476806
C       0.58039310     -1.45881741      0.03309604
C       1.84746510     -0.88718783     -0.09398170
C       1.98001770      0.49559604     -0.20570253
C       0.84999415      1.31247401     -0.14136848
C      -0.41354503      0.75129417      0.05890100
N      -1.56211073      1.57628000      0.09144203
H      -2.53076382     -0.64431117     -0.28517151
H      -1.87689933     -2.18151074     -0.16073549
H       0.48922882     -2.53800559      0.11238243
H       2.72911622     -1.52213853     -0.11695765
H       2.96384083      0.93968872     -0.33168740
H       0.96656472      2.38906334     -0.22268154
H      -1.35002182      2.51165877      0.42435333
H      -2.27201571      1.13568461      0.67461460
