38
CC(C)(C)[C@@H](O)[C@H](Oc1ccc(Cl)cc1)n1cncn1
C      -3.62615572     -0.46605592      1.37296588
C      -2.19935095     -0.69717750      0.82091515
C      -1.36327843     -1.32269314      1.95269216
C      -2.29827477     -1.70475856     -0.33887500
C      -1.62955576      0.67516394      0.32561627
O      -1.58081512      1.57394315      1.45116206
C      -0.25347370      0.62086853     -0.40275262
O       0.79228417      0.23863844      0.50111781
C       1.91135902     -0.36586953     -0.00011879
C       2.74101121     -0.93448797      0.97219164
C       3.92463094     -1.58173184      0.61086789
C       4.28530331     -1.65434669     -0.73079913
Cl      5.74093518     -2.44897618     -1.18554657
C       3.47305897     -1.08172448     -1.70717747
C       2.28632762     -0.43436052     -1.34302692
N       0.05052726      1.93352196     -0.97031910
C       0.69874367      2.97768551     -0.38490360
N       0.72379107      3.99745634     -1.21172550
C       0.07984147      3.51744884     -2.31521947
N      -0.36127063      2.26006662     -2.21599801
H      -3.62005498      0.20004432      2.24266222
H      -4.08805568     -1.40917586      1.68740235
H      -4.27588209     -0.01948132      0.61181034
H      -1.20144375     -0.61853404      2.77537637
H      -1.86761940     -2.20228488      2.37050031
H      -0.38730231     -1.66402375      1.59783956
H      -2.84868353     -1.27956449     -1.18538774
H      -2.82197311     -2.61586305     -0.02680686
H      -1.30988674     -2.01194380     -0.69578601
H      -2.36453907      1.09782526     -0.37444170
H      -1.79542032      2.46929731      1.13079732
H      -0.32846447     -0.07870759     -1.24285732
H       2.46185576     -0.87634696      2.02233464
H       4.55578012     -2.02140502      1.37828045
H       3.75953287     -1.12857419     -2.75504339
H       1.69857392      0.01381835     -2.13845797
H       1.11305139      2.93996061      0.61394124
H      -0.07510741      4.10234811     -3.21323047
