35
CCOCCNCc1cc2cc(S(N)(=O)=O)oc2s1
C       6.28092295      0.97455110      0.24232330
C       5.56608961     -0.36368151      0.29804806
O       4.32379384     -0.32683255     -0.40139663
C       3.27658623      0.30835070      0.34324177
C       1.96554421      0.18545826     -0.44623565
N       1.59489471     -1.23276523     -0.59364907
C       0.51243065     -1.41959577     -1.56181831
C      -0.80643344     -0.93644732     -1.03337263
C      -1.45794934     -1.31066475      0.14548999
C      -2.65494685     -0.61172164      0.23292862
C      -3.68724110     -0.56382990      1.15136163
C      -4.59742916      0.36371518      0.61804258
S      -6.16256324      0.94156600      1.24845946
N      -7.19669800      1.16535717     -0.05591739
O      -5.90741992      2.25298753      1.79548665
O      -6.70679584     -0.14130667      2.03355602
O      -4.09189734      0.84393974     -0.59765751
C      -2.91397724      0.22041161     -0.77975640
S      -1.72853096      0.24127050     -1.94721333
H       5.73397973      1.74155395      0.79853183
H       6.36517880      1.32448825     -0.79161012
H       7.28376931      0.89334153      0.67170251
H       5.41858487     -0.69513827      1.33199599
H       6.18681809     -1.11610763     -0.19953910
H       3.17453851     -0.16601261      1.32645926
H       3.51250316      1.36831138      0.48087291
H       1.17839276      0.73444494      0.08086285
H       2.11236424      0.63643416     -1.43508072
H       2.42895920     -1.71512456     -0.93933091
H       0.41599676     -2.49477887     -1.75769216
H       0.76842124     -0.95665683     -2.52245022
H      -1.05507102     -2.02348604      0.85385393
H      -3.81441573     -1.09897737      2.08177790
H      -8.12848488      0.82810117      0.18534812
H      -7.18991482      2.14884437     -0.32882082
