22
Cn1c(=O)c2nccnc2n(C)c1=O
C      -3.04362014     -1.02529131      0.41507372
N      -1.66910516     -0.58474492      0.25259951
C      -0.69375924     -1.56322971      0.07317150
O      -0.94379513     -2.76634384      0.03142100
C       0.69340317     -1.08687875     -0.08158072
N       1.68329010     -2.01854993     -0.19892969
C       2.92915715     -1.52288317     -0.34123706
C       3.17863037     -0.16326181     -0.36591152
N       2.19257758      0.75865541     -0.24961945
C       0.92762971      0.27900514     -0.10420328
N      -0.13723491      1.19264048      0.01232534
C       0.18717539      2.60935228     -0.05593184
C      -1.44825223      0.78661327      0.17252248
O      -2.37708699      1.59405025      0.23612416
H      -3.09956896     -2.05351021      0.78305200
H      -3.54034438     -0.96701562     -0.55871218
H      -3.57206984     -0.37405817      1.11842014
H       3.72641605     -2.25196449     -0.43578695
H       4.18411610      0.22697486     -0.48107117
H       0.87977893      2.86380182      0.75305546
H      -0.70263155      3.23596744      0.05069607
H       0.64529398      2.83067098     -1.02547752
