17
CC(C)(C(=O)O)C(=O)O
C       0.17964225     -1.50480984     -0.60371305
C      -0.04079561     -0.10131229     -0.02056550
C       0.14854025     -0.14514031      1.50287977
C      -1.45640042      0.34897024     -0.32448360
O      -2.27672932     -0.23122087     -1.01874421
O      -1.79373637      1.51222058      0.27055165
C       0.95407189      0.83432544     -0.67204243
O       0.73946316      1.61388377     -1.58640319
O       2.21082308      0.70646596     -0.19485225
H       1.18794042     -1.87597601     -0.38693835
H      -0.53882400     -2.22428736     -0.19424124
H       0.06224061     -1.50471546     -1.69413868
H       0.15658681      0.86277010      1.93424861
H      -0.65930084     -0.70602482      1.98704925
H       1.09642558     -0.62099345      1.77915913
H      -2.70280897      1.69017407     -0.05244265
H       2.73286147      1.34567027     -0.72532326
