38
CN(C)CCNC(=O)NC1CCCCC1
C       4.93575505     -0.48372810     -1.38654810
N       3.91492698     -0.01940461     -0.44201107
C       4.37708267      1.20669484      0.21599035
C       3.62381285     -1.08805693      0.54443865
C       2.39084188     -0.79615368      1.41602011
N       1.24857901     -0.42858820      0.60029640
C       0.04965408     -0.13894439      1.19553269
O      -0.17778079     -0.27150210      2.38952643
N      -0.85788568      0.31282235      0.27095320
C      -2.24309557      0.57435586      0.64438996
C      -2.90203064      1.51386272     -0.37968160
C      -3.62922681      0.74125631     -1.47461466
C      -4.74886425     -0.13302851     -0.90592786
C      -4.49801996     -0.58692185      0.53302767
C      -3.01129023     -0.74932014      0.82105007
H       5.87904265     -0.73303628     -0.88705829
H       5.13698828      0.28266123     -2.14348579
H       4.58550738     -1.37005575     -1.92725258
H       3.59637686      1.63263179      0.85386180
H       4.61178874      1.97562809     -0.52905948
H       5.27140036      1.03664094      0.82626242
H       3.41316995     -2.01581251     -0.00425080
H       4.49228111     -1.28483126      1.18560358
H       2.12444921     -1.68112335      2.00501115
H       2.58611193      0.01946957      2.12105486
H       1.48571911      0.15742609     -0.19051680
H      -0.69254778     -0.03332207     -0.66306661
H      -2.21943267      1.09790153      1.60907583
H      -2.16085225      2.18833571     -0.82493908
H      -3.63156542      2.15091488      0.13735470
H      -2.90990682      0.10916904     -2.01030756
H      -4.04577232      1.43380481     -2.21483373
H      -4.87510862     -1.00791358     -1.55524311
H      -5.70001329      0.41196497     -0.94089516
H      -4.92106250      0.14988081      1.22749072
H      -5.02660104     -1.52878783      0.71858158
H      -2.60479360     -1.52101445      0.15358337
H      -2.86763786     -1.12387595      1.84167389
