28
C=CCOC(=O)C(C)OC(=O)C(C)O
C      -4.60108935      2.39277269      0.97903436
C      -3.96039107      1.24620669      1.24265919
C      -2.48927039      1.13303659      1.49897648
O      -1.95857658      0.23267271      0.52367638
C      -0.61686550      0.02609405      0.64133674
O       0.09599638      0.51671767      1.50894708
C      -0.12739392     -0.91550769     -0.46246936
C      -0.64508917     -2.32363702     -0.20276213
O       1.30653230     -0.99310292     -0.48844817
C       1.92125630      0.12294619     -0.96722269
O       1.33986459      1.10782484     -1.41062523
C       3.44325332      0.03438166     -0.82617916
C       3.99744205     -1.24957783     -1.42001432
O       4.08541608      1.12860034     -1.48387478
H      -5.67249291      2.40220125      0.80240269
H      -4.07731490      3.34266288      0.92802703
H      -4.52992642      0.32066769      1.28131418
H      -2.33186819      0.72688090      2.50474439
H      -1.99464797      2.10778511      1.41403126
H      -0.49391579     -0.56147083     -1.43389802
H      -1.73894213     -2.35900162     -0.20563145
H      -0.27063273     -3.01674787     -0.96367443
H      -0.29514067     -2.69559966      0.76705374
H       3.68651947      0.10432319      0.23909686
H       5.09125235     -1.25981861     -1.36430917
H       3.61510411     -2.13455502     -0.90220760
H       3.73099404     -1.33422815     -2.47969292
H       3.48992671      1.89747277     -1.38606385
