46
CCCCC(CC)CN(CCC(=O)[O-])CCC(=O)O.[Na+]
C       2.77145147     -0.42796583      4.23983167
C       2.85272549     -0.96668239      2.82036347
C       1.56178814     -0.69964333      2.04483630
C       1.65574232     -1.23707861      0.61189632
C       0.33433676     -1.10414465     -0.18047068
C       0.35542971     -2.01734117     -1.43152605
C       1.47713151     -1.74383049     -2.42556721
C       0.02300399      0.37568412     -0.52089354
N      -1.32772016      0.53132744     -1.11696841
C      -1.23894026      1.26034156     -2.42084783
C      -0.81323418      2.72355705     -2.34177712
C      -0.62449157      3.36053762     -3.71785315
O      -0.14312322      4.52933908     -3.67923151
O      -0.96578886      2.66917968     -4.71458343
C      -2.26572945      1.23298023     -0.20619392
C      -2.72341439      0.34934233      0.95210492
C      -3.53684415     -0.84772540      0.52140192
O      -4.42018330     -1.33383115      1.21721803
O      -3.16728313     -1.39967624     -0.65385463
Na      0.00000000      0.00000000      0.00000000
H       3.70336420     -0.63181155      4.77646042
H       1.95152027     -0.89860221      4.79162300
H       2.60941933      0.65463888      4.23977897
H       3.69987195     -0.49852773      2.30627954
H       3.04974132     -2.04427693      2.85627053
H       0.72014322     -1.17590246      2.56194924
H       1.36940839      0.37812173      2.03578631
H       1.93640766     -2.29701040      0.66006217
H       2.46521935     -0.71685256      0.08539788
H      -0.46683353     -1.48765860      0.46383352
H       0.44066416     -3.06025310     -1.10017265
H      -0.60218680     -1.95076740     -1.95955824
H       1.43284721     -0.72558006     -2.82030721
H       2.46095705     -1.89876565     -1.97375105
H       1.39524301     -2.43056200     -3.27457307
H       0.11200932      1.00016568      0.37460254
H       0.80779243      0.74014073     -1.19471042
H      -2.22292903      1.19304311     -2.90413834
H      -0.56317422      0.69985247     -3.07938953
H       0.13126205      2.82889211     -1.79623032
H      -1.56866169      3.31771061     -1.81470695
H      -1.82223481      2.15399579      0.19172748
H      -3.16249175      1.52456898     -0.76911138
H      -3.36625487      0.95526923      1.60223882
H      -1.88257429      0.00076973      1.55904567
H      -2.43338664     -0.88496823     -1.08240451
