33
NS(=O)(=O)c1ccc(NC(=S)Nc2ccc(F)cc2)cc1
N       6.03018887      0.68221312      0.72114643
S       5.25784201     -0.79188510      0.50680832
O       5.40318307     -1.50097704      1.75683187
O       5.74468378     -1.32195957     -0.74500863
C       3.57153143     -0.29671477      0.31233060
C       3.09026018      0.03311392     -0.95523666
C       1.74922247      0.40024403     -1.11501139
C       0.88807524      0.44618005     -0.01578306
N      -0.48119378      0.77528370     -0.09754025
C      -1.18942861      1.48883574     -1.03048565
S      -0.59910702      2.58713156     -2.14765310
N      -2.55715220      1.37703779     -0.95976396
C      -3.38864911      0.38520345     -0.40145871
C      -4.74819629      0.70040384     -0.26430035
C      -5.64377370     -0.22982487      0.26880714
C      -5.18255502     -1.48301063      0.64713176
F      -6.03939196     -2.37759567      1.15525249
C      -3.84573257     -1.82493711      0.49175494
C      -2.94875795     -0.89315822     -0.04015719
C       1.37792109      0.07283235      1.24464478
C       2.71631013     -0.29369312      1.41423524
H       6.46042768      0.71868843      1.64541358
H       6.68336970      0.84723537     -0.04517658
H       3.74311917     -0.00101200     -1.82491814
H       1.40050750      0.60857654     -2.12119501
H      -1.00983228      0.62290945      0.75327199
H      -3.03208336      2.11172578     -1.47605555
H      -5.12426768      1.67860959     -0.55492662
H      -6.69447081      0.01509268      0.38764186
H      -3.51113022     -2.82025670      0.76772654
H      -1.92598123     -1.21636701     -0.20844253
H       0.72705861      0.07365467      2.11600850
H       3.07800282     -0.57358027      2.40113302
