17
CCC(O)CN
C      -1.75609484      1.36801263      0.58972977
C      -0.41668923      0.95023945     -0.00430389
C      -0.38814578     -0.53893328     -0.36483521
O      -0.50503994     -1.31339786      0.83318095
C       0.91048657     -0.95609767     -1.08536199
N       2.06472112     -0.91863057     -0.17478055
H      -1.75120604      2.43951887      0.81356197
H      -2.57350745      1.17214185     -0.11150855
H      -1.96405198      0.83078864      1.52031462
H      -0.22112433      1.55321010     -0.89832394
H       0.36221863      1.18078901      0.73174454
H      -1.24466536     -0.78283546     -1.00317034
H       0.41968212     -1.45182105      1.12818026
H       1.09475352     -0.32475796     -1.96066895
H       0.80338776     -1.99056320     -1.43048922
H       2.28024159      0.05157796      0.05809989
H       2.88503364     -1.26924144     -0.67125340
