26
Cc1ncc([N+](=O)[O-])n1CCOP(=O)(O)O
C      -2.75794216     -1.84355183     -0.30881915
C      -2.41854344     -0.41188214     -0.08590828
N      -3.27358031      0.58460731     -0.20608220
C      -2.58040827      1.71950835      0.10988526
C      -1.27819791      1.41406570      0.41742280
N      -0.26233186      2.33165243      0.80494449
O       0.91903779      1.96705931      0.74789510
O      -0.64073446      3.45372477      1.15905221
N      -1.16265779      0.05073055      0.28921577
C      -0.02278517     -0.81583100      0.56102481
C       0.76520208     -1.17580702     -0.69993623
O       1.55982877     -0.08455975     -1.12969542
P       3.01833838      0.05932247     -0.47965299
O       3.20961374     -0.52464835      0.87613359
O       3.29216853      1.62503229     -0.59210562
O       3.98163832     -0.52903353     -1.60554989
H      -2.67702729     -2.40984600      0.62370186
H      -3.78741481     -1.93774237     -0.66918942
H      -2.10074882     -2.29374151     -1.05757693
H      -3.05737982      2.69220031      0.09948041
H      -0.41985468     -1.72969930      1.01693981
H       0.59615235     -0.33847424      1.32362589
H       1.40832312     -2.04224571     -0.50821555
H       0.09867347     -1.44445045     -1.52513759
H       2.67497566      2.10124614      0.00495669
H       4.91565458     -0.41763644     -1.35515464
