54
CC(C)CC(C)OC(=O)CC(C(=O)OC(C)CC(C)C)S(=O)(=O)[O-].[Na+]
C       6.14531834     -1.31550606     -0.57784031
C       5.55918298     -0.23740036      0.33848404
C       5.91151116     -0.54917473      1.79314647
C       4.03960521     -0.13604537      0.11312388
C       3.30590163      0.93220071      0.94096138
C       3.82286470      2.34111235      0.66642798
O       1.91021880      0.93804929      0.57633988
C       1.12749178     -0.00485723      1.16453656
O       1.48391899     -0.77052149      2.05284310
C      -0.28162549      0.07498802      0.65359017
C      -0.68262724     -1.23834118      0.00954223
C      -2.16850044     -1.39718575      0.01799672
O      -2.75446392     -2.22080652      0.71948998
O      -2.81024881     -0.45501731     -0.72521384
C      -4.22881466     -0.60960281     -0.88879630
C      -4.47845954     -1.65069837     -1.98120080
C      -4.82348889      0.74431898     -1.31458569
C      -4.87314005      1.84956721     -0.23707023
C      -5.76659303      1.46862118      0.94399817
C      -3.49539265      2.28386674      0.25786513
S      -0.05524161     -1.42053821     -1.63074226
O      -0.73324373     -2.60836846     -2.14309041
O      -0.40240264     -0.17418388     -2.30862275
O       1.37925759     -1.59746092     -1.41196814
Na      0.00000000      0.00000000      0.00000000
H       7.23288225     -1.37466358     -0.46298163
H       5.72660135     -2.30193270     -0.35080167
H       5.93346846     -1.09034023     -1.62848214
H       6.03005270      0.71391795      0.06465699
H       5.41520249     -1.46391967      2.13447793
H       5.61665346      0.26794755      2.45832630
H       6.99185603     -0.68751900      1.90996801
H       3.58361076     -1.11402809      0.31499263
H       3.84419919      0.05288489     -0.95144536
H       3.40061672      0.73511567      2.01499595
H       4.85559764      2.46939527      1.00172280
H       3.20259184      3.08091657      1.18474724
H       3.76637925      2.57823245     -0.40171294
H      -0.91306654      0.30471064      1.52100102
H      -0.38782514      0.92592755     -0.02834972
H      -0.27693719     -2.09093569      0.57062985
H      -4.69474064     -0.94262254      0.04476790
H      -3.98808967     -1.36000473     -2.91698558
H      -4.06210695     -2.62311618     -1.69853607
H      -5.54870692     -1.77971048     -2.16958019
H      -5.84891322      0.58516082     -1.67338114
H      -4.24915733      1.13221322     -2.16675605
H      -5.33049551      2.72539797     -0.71733268
H      -5.90611156      2.32654050      1.61080750
H      -6.75610074      1.15127188      0.59901439
H      -5.33379513      0.65737240      1.53769261
H      -2.82107425      2.48774580     -0.58006435
H      -3.57618251      3.20197890      0.85028850
H      -3.03743732      1.52565871      0.89910495
