28
CC(N)(Cc1ccc(O)c(O)c1)C(=O)O
C      -1.75311433     -0.70492155     -1.54368809
C      -1.99248597      0.23074347     -0.35495913
N      -3.23129924      1.00670030     -0.66567789
C      -0.82121192      1.21836560     -0.11566157
C       0.54136502      0.59786705      0.10273171
C       0.94274951      0.17559997      1.38211637
C       2.19767104     -0.40876178      1.58369092
C       3.05460248     -0.56477769      0.50221414
O       4.29258562     -1.13018403      0.63505528
C       2.66848866     -0.14141564     -0.76563840
O       3.51779725     -0.29508942     -1.82402401
C       1.42439192      0.43700940     -0.97547978
C      -2.24995151     -0.59291988      0.92457725
O      -1.97006960     -1.76249181      1.13198626
O      -2.84532394      0.13489732      1.90326191
H      -0.91308396     -1.38450523     -1.36288988
H      -2.62826262     -1.33953322     -1.73100967
H      -1.54337997     -0.14340735     -2.46123855
H      -3.03369353      1.69390939     -1.39085073
H      -3.49076666      1.53056544      0.17388252
H      -1.04141122      1.86062113      0.74905426
H      -0.74567959      1.90962378     -0.96736823
H       0.27823829      0.29821080      2.23521353
H       2.47998785     -0.73078834      2.58065797
H       4.40136722     -1.39953265      1.56326308
H       4.30922033     -0.72207031     -1.43953451
H       1.15098906      0.75457260     -1.97806353
H      -2.99972020     -0.52828737      2.60844646
