18
O=C(O)c1cc([N+](=O)[O-])ccc1O
O       3.20375670      0.43705917      0.28611756
C       2.29650065     -0.33707579      0.03309768
O       2.52155746     -1.61856678     -0.29383164
C       0.86218057      0.02651992      0.05290807
C      -0.13038864     -0.91725797     -0.24950854
C      -1.47972182     -0.53464129     -0.22014813
N      -2.52189670     -1.52072542     -0.53639448
O      -2.15837907     -2.67022141     -0.82103169
O      -3.70150157     -1.14429771     -0.49963730
C      -1.84583027      0.77789846      0.10746871
C      -0.85418727      1.71286969      0.40750831
C       0.48978460      1.33968626      0.38035706
O       1.38862358      2.32543590      0.68888400
H       3.49678278     -1.72191543     -0.26926368
H       0.14844777     -1.93801297     -0.50460699
H      -2.88919783      1.08717842      0.13372206
H      -1.12639190      2.73485768      0.66328746
H       2.29986094      1.96120926      0.64107153
