18
NC(=O)Nc1ccc(Br)cc1
N       3.57019798     -0.26266980      0.22469746
C       2.36297690      0.35485973      0.38799217
O       2.32447313      1.52666926      0.73030385
N       1.32206751     -0.49701953      0.13419632
C      -0.05321059     -0.19681012      0.13534006
C      -0.56423505      1.09715861      0.26278278
C      -1.94579888      1.31988195      0.24646989
C      -2.82003322      0.24677877      0.09892839
Br     -4.68537462      0.54808706      0.07625395
C      -2.32596656     -1.04775508     -0.03396283
C      -0.94507789     -1.26691798     -0.01712888
H       4.33882116      0.39091948      0.32443324
H       3.65822232     -0.85929809     -0.58519261
H       1.57822357     -1.47098768      0.07181919
H       0.08856603      1.95802004      0.37432390
H      -2.32177439      2.33446618      0.34960719
H      -3.00235788     -1.89024001     -0.15026827
H      -0.57971954     -2.28514279     -0.12209665
