20
C=COCCCCO
C      -3.17824773      0.98742020     -1.60464571
C      -2.61804591      1.31321166     -0.43447639
O      -1.52132597      0.77621331      0.17571935
C      -0.84905820     -0.28661450     -0.50143387
C       0.33672944     -0.74534506      0.34525017
C       1.37431665      0.36674791      0.53976204
C       2.56397991     -0.10315120      1.36822721
O       3.27136815     -1.13284117      0.69053891
H      -2.79696061      0.20289718     -2.24620962
H      -4.05962339      1.51969121     -1.94873106
H      -3.02149004      2.10328786      0.19077672
H      -1.53475143     -1.13170739     -0.63616894
H      -0.49292765      0.05444601     -1.48107159
H      -0.02562566     -1.06543584      1.32981017
H       0.80054513     -1.61341049     -0.13663901
H       1.72504653      0.70058279     -0.44420789
H       0.91386114      1.22702248      1.03831789
H       2.23729829     -0.49228260      2.33759801
H       3.25585037      0.72514605      1.55151703
H       3.61906098     -0.75207366     -0.13393341
