30
N=c1nc(N2CCCCC2)cc(N)n1O
N       3.50540248      1.01885998      1.63327157
C       2.77062408      0.53163842      0.68322501
N       1.43167025      0.53367027      0.94528965
C       0.64726707      0.00335491      0.03873697
N      -0.73602114     -0.00318576      0.25544142
C      -1.22375404      0.30519492      1.61346102
C      -2.63032426     -0.25456535      1.81463177
C      -3.58857140      0.24879143      0.74166279
C      -3.02917856     -0.04157258     -0.64627488
C      -1.61855357      0.52019486     -0.80220921
C       1.19195575     -0.63085286     -1.21763925
C       2.51635392     -0.57789614     -1.44161379
N       3.08019940     -1.15285246     -2.56818673
N       3.29519866      0.04977359     -0.49363172
O       4.69306365     -0.02335524     -0.54270417
H       2.81696650      1.28259418      2.35073302
H      -0.57172033     -0.15062006      2.36836301
H      -1.21579396      1.39021601      1.77518722
H      -3.00270831      0.02514389      2.80637696
H      -2.59474059     -1.35083319      1.78068391
H      -3.74070879      1.32851056      0.85994815
H      -4.56673942     -0.23045058      0.85870540
H      -3.01139863     -1.12631121     -0.81063642
H      -3.68716663      0.39014331     -1.40860083
H      -1.63729645      1.61608949     -0.75086444
H      -1.25504020      0.25504480     -1.79990432
H       0.50529469     -1.12346085     -1.88926281
H       4.08120414     -1.26815060     -2.40380815
H       2.63339067     -2.02428011     -2.83466934
H       4.94112501      0.45916638      0.27743124
