39
O=C(O)CN(CCCN(CC(=O)O)CC(=O)O)CC(=O)O
O      -3.94361337     -0.65412427      3.40324562
C      -3.45530007     -0.86263775      2.30393151
O      -2.65377983     -1.92548141      2.03230378
C      -3.70817434     -0.00812176      1.06106511
N      -2.61661275     -0.26065687      0.06884941
C      -1.47377560      0.63922165      0.34462240
C      -0.16969012      0.10326196     -0.26434026
C       1.00993352      1.02325488      0.08683098
N       2.27259403      0.59021020     -0.55005082
C       2.81621928     -0.61489680      0.12601072
C       4.12318247     -1.09668039     -0.48838395
O       5.18136007     -0.47754931     -0.47026642
O       4.03741090     -2.30600019     -1.07152636
C       3.22473014      1.72928848     -0.62262565
C       3.76139766      2.19190816      0.72870551
O       3.15831825      2.94848120      1.47784823
O       4.95961349      1.65538120      1.05831953
C      -3.13220880     -0.06021668     -1.31356262
C      -4.05458142     -1.19350214     -1.75554970
O      -4.88913268     -1.12012384     -2.64391517
O      -3.85568039     -2.36080110     -1.10603538
H      -2.40976523     -1.85500440      1.07590493
H      -3.76542571      1.05003827      1.33806695
H      -4.68385621     -0.32625207      0.67746143
H      -1.68284829      1.65636109     -0.01068873
H      -1.31583773      0.71000769      1.42889084
H      -0.25120638      0.03099599     -1.35453945
H       0.00365448     -0.90940950      0.11654094
H       1.12236680      1.09552369      1.17596181
H       0.74672094      2.02681790     -0.27229392
H       2.10294992     -1.44234869      0.04770615
H       2.99109732     -0.44842047      1.19569301
H       4.93001702     -2.48984338     -1.43170470
H       4.05556797      1.50669261     -1.29991039
H       2.74198465      2.59422728     -1.09623534
H       5.30499915      1.00535038      0.39945060
H      -2.31363615     -0.05358719     -2.03982464
H      -3.67581124      0.88864754     -1.38837908
H      -4.49318175     -2.98001197     -1.52070367
