49
O=C(CCCN1CCC(O)(c2ccccc2)CC1)c1ccc(F)cc1
O       3.78853169      2.48962773      0.36261405
C       3.86817139      1.26615900      0.26838771
C       2.67987148      0.35241920      0.51259678
C       1.40228316      1.13876271      0.81553967
C       0.21957975      0.23287760      1.18389701
N      -0.07653591     -0.80392236      0.18469538
C      -1.00437702     -1.82346677      0.69725467
C      -2.44336404     -1.32380207      0.85868491
C      -3.00447107     -0.74429007     -0.45469072
O      -3.10702663     -1.84206435     -1.38037302
C      -4.40361893     -0.12648712     -0.34122430
C      -5.07767203      0.03827183      0.87937221
C      -6.35696167      0.60273584      0.92714299
C      -6.98974959      1.01055814     -0.24324285
C      -6.34593411      0.85300632     -1.46532611
C      -5.06888684      0.28987328     -1.51294104
C      -2.00491609      0.27699212     -1.03119799
C      -0.58050535     -0.28191438     -1.09405723
C       5.18292669      0.64886831     -0.09220539
C       6.27718359      1.49817996     -0.32554970
C       7.52455170      0.96882751     -0.66380860
C       7.67711718     -0.40770124     -0.76841831
F       8.87210881     -0.91750614     -1.09246091
C       6.60613470     -1.26461305     -0.54113841
C       5.35555067     -0.73872939     -0.20200962
H       2.52894917     -0.25761280     -0.38436701
H       2.91454616     -0.29832638      1.36243636
H       1.14696879      1.78088040     -0.03566179
H       1.58449981      1.81854679      1.65810891
H       0.47793103     -0.25538704      2.13295432
H      -0.65396690      0.86128980      1.39128521
H      -0.98939247     -2.68536954      0.01751392
H      -0.64179763     -2.21217807      1.65709567
H      -2.46334583     -0.57284727      1.65732052
H      -3.06086350     -2.16801323      1.19205907
H      -3.99724108     -2.22319374     -1.27967586
H      -4.63116290     -0.26534572      1.82194753
H      -6.85950658      0.72373990      1.88380168
H      -7.98307662      1.44933843     -0.20233253
H      -6.83532222      1.16697377     -2.38369694
H      -4.58969962      0.16984775     -2.48384897
H      -2.01812631      1.19878162     -0.43602509
H      -2.28805305      0.55900377     -2.05316121
H       0.09381353      0.48150334     -1.49693639
H      -0.54735478     -1.09460506     -1.83203950
H       6.16146147      2.57795355     -0.24475960
H       8.37270188      1.62150868     -0.84523119
H       6.75110363     -2.33714578     -0.62985776
H       4.53694248     -1.43200576     -0.03059638
