31
O=C1Nc2ccc(Cl)cc2C(c2ccccc2Cl)=NC1O
O       3.48353119     -2.06162196     -1.47903636
C       2.75385236     -1.43213684     -0.70918475
N       2.79464396     -0.06042120     -0.71952919
C       1.99780591      0.81601901      0.03104248
C       2.54547135      2.07848743      0.29770820
C       1.85180449      3.00443109      1.07964904
C       0.59905667      2.67765514      1.58752491
Cl     -0.25178502      3.81285486      2.55929427
C       0.01904214      1.44544744      1.29637087
C       0.70336895      0.51693813      0.49358827
C      -0.03658553     -0.70360080      0.04550569
C      -1.47625109     -0.56344257     -0.32690846
C      -2.38989490     -1.39007833      0.34491443
C      -3.75356141     -1.30357061      0.06369753
C      -4.21002976     -0.40145236     -0.89537549
C      -3.30255842      0.40678323     -1.58370207
C      -1.93328721      0.32545673     -1.30881306
Cl     -0.87392643      1.31306557     -2.24978475
N       0.45589438     -1.89256067     -0.03786174
C       1.84097329     -2.11578984      0.34166906
O       2.15163110     -3.49596444      0.44225152
H       3.56780363      0.30856415     -1.26002551
H       3.53262485      2.34626770     -0.07397482
H       2.29838984      3.97263916      1.29342015
H      -0.97297103      1.22384518      1.68256498
H      -2.03805667     -2.10526757      1.08636706
H      -4.45798282     -1.94582647      0.58769216
H      -5.27267550     -0.33746489     -1.11906483
H      -3.67079501      1.09083822     -2.34507907
H       2.06019902     -1.69410146      1.32937052
H       1.98426766     -3.83599302     -0.45429104
