22
CCOC(OCC)C(Cl)(Cl)Cl
C       3.20945381     -0.60300859      0.25463055
C       1.71168029     -0.46694886      0.44644816
O       1.28517909      0.72323502     -0.20590613
C      -0.10904246      1.01793257      0.00229299
O      -0.91431457     -0.00717338     -0.60469321
C      -1.74682191     -0.69233105      0.32647849
C      -2.54946368     -1.73264623     -0.42865944
C      -0.45376127      2.43071296     -0.58890140
Cl      0.54797008      3.70561184      0.20319627
Cl     -0.17569342      2.51245587     -2.36145167
Cl     -2.18114173      2.84717252     -0.27138388
H       3.73175246      0.26454809      0.67140078
H       3.45963947     -0.64397079     -0.81067607
H       3.58453190     -1.50803673      0.74057327
H       1.20775298     -1.33518308      0.00982010
H       1.47926351     -0.41275412      1.51546234
H      -0.28295102      1.05295849      1.08762591
H      -1.12974971     -1.18092711      1.08797663
H      -2.42422540      0.01476453      0.81613105
H      -3.16074036     -1.25933657     -1.20419221
H      -1.88417101     -2.44005248     -0.93470678
H      -3.20514703     -2.28702290      0.24853425
