28
O=C(O)c1ccc(N=Nc2ccc(O)cc2)cc1
O      -6.08625869      0.41387506      0.76243223
C      -5.43397444      0.23560309     -0.24934693
O      -6.02801259     -0.02628476     -1.42679114
C      -3.95466201      0.27568602     -0.34728979
C      -3.28305020      0.06612809     -1.55766293
C      -1.88529755      0.11454934     -1.59984516
C      -1.14242564      0.36188931     -0.44018284
N       0.25946515      0.43291892     -0.52358083
N       0.78647378     -0.46136433      0.17465508
C       2.18908051     -0.40329842      0.08051321
C       2.88805032     -1.51668191     -0.39875921
C       4.28240050     -1.50059966     -0.47672972
C       4.98072964     -0.37139181     -0.06550150
O       6.34020796     -0.39777440     -0.15847634
C       4.30919805      0.74286577      0.42665811
C       2.91368563      0.72154026      0.50293009
C      -1.82220980      0.58331128      0.76526108
C      -3.21902878      0.53644067      0.81503287
H      -6.98465029     -0.02330487     -1.21272947
H      -3.83454302     -0.13376142     -2.47319270
H      -1.36806116     -0.04528493     -2.54297827
H       2.34037776     -2.40020031     -0.71564622
H       4.81950531     -2.36581080     -0.85470617
H       6.69102888      0.45143239      0.15639557
H       4.84563259      1.62724078      0.75481863
H       2.38185618      1.58571626      0.89269432
H      -1.25747071      0.79133331      1.67080181
H      -3.72804738      0.70522707      1.76212674
