23
Clc1ccc(Oc2ccc(Cl)c(Cl)c2Cl)c(Cl)c1
Cl      5.08635245     -0.18783050     -1.36372227
C       3.58771945     -0.25970511     -0.52189317
C       2.80339939      0.88874220     -0.41102790
C       1.58588526      0.83565767      0.27013148
C       1.15217766     -0.37376596      0.82512952
O      -0.02736150     -0.43611778      1.53570335
C      -1.16854219     -0.07213797      0.85007108
C      -1.54569298     -0.77267906     -0.29953749
C      -2.72155258     -0.42964657     -0.96271982
C      -3.52994456      0.60177303     -0.47328175
Cl     -4.96896743      0.96010185     -1.36536467
C      -3.17027742      1.29707852      0.69327261
Cl     -4.18339366      2.57372785      1.29587997
C      -1.98429915      0.94972548      1.36259551
Cl     -1.48552469      1.77284711      2.80813209
C       1.95589805     -1.51637097      0.72806889
Cl      1.46278521     -3.01889418      1.41917376
C       3.17243966     -1.46254319      0.04663974
H       3.13884662      1.82841440     -0.84380605
H       0.99279941      1.74030390      0.37626685
H      -0.93771959     -1.59249753     -0.67510660
H      -3.00869659     -0.97605992     -1.85915645
H       3.79366919     -2.35012326     -0.03760884
