43
CCCC[O-].CCCC[O-].CCCC[O-].[Al+3]
C      -1.85145809     -0.25009326     -0.51163320
C      -0.41259806     -0.67993147     -0.21291205
C       0.38672787      0.60375102     -0.13682340
C       1.84669744      0.32990289      0.15668588
O       2.36541314     -0.46138784     -0.85822617
C      -1.89484420     -0.10149518     -0.23458055
C      -0.48727169     -0.64621910      0.04805899
C       0.45479586      0.52601030     -0.12024618
C       1.89005325      0.15299216      0.12535805
O       2.25063272     -0.83203187     -0.78132606
C      -1.88928827      0.30896339     -0.08370346
C      -0.45798522      0.48719792      0.29300135
C       0.44110719     -0.57910915     -0.29862926
C       1.89312681     -0.33942840      0.12498068
O       2.33635796      0.90073006     -0.31263888
Al      0.00000000      0.00000000      0.00000000
H      -1.81811106      0.26028613     -1.48486481
H      -2.46235869     -1.15091528     -0.48688576
H      -2.11849287      0.47874029      0.28428735
H      -0.03925370     -1.32988734     -1.04998435
H      -0.34246129     -1.20213453      0.75913412
H       0.26766591      1.18422606     -1.07873833
H      -0.07623614      1.21760451      0.66130919
H       2.39226552      1.26411717      0.32490392
H       1.86220000     -0.26427835      1.11434426
H      -1.89077385      0.15708904     -1.32482510
H      -1.98775109      0.83578343      0.31347314
H      -2.65530428     -0.85635528      0.01804280
H      -0.30805385     -1.44336217     -0.67514186
H      -0.51739140     -0.99497973      1.09781115
H       0.38622027      0.93305673     -1.14644864
H       0.15894980      1.34055317      0.56572921
H       2.10057658     -0.12806316      1.17555879
H       2.50016189      1.05702166     -0.07984318
H      -2.07364929     -0.56503649     -0.73746573
H      -2.25903478      1.22927367     -0.62160781
H      -2.57453332      0.22396135      0.80305581
H      -0.35406748      0.44963396      1.39479416
H      -0.07853917      1.46542255     -0.10027003
H       0.14476863     -1.60139520      0.00035992
H       0.43896791     -0.53963868     -1.40789256
H       1.87771437     -0.34017755      1.24303686
H       2.55505465     -1.10039743     -0.29702104
