23
CC(=O)Nc1ccc2c(c1)C(=O)OC2
C      -4.27166097     -0.34390667      0.06775612
C      -2.97153371      0.41179904     -0.05317409
O      -2.96530385      1.61958104     -0.26119279
N      -1.87091169     -0.40728866      0.12508444
C      -0.50977983     -0.03932485      0.08328205
C      -0.05809513      1.27012708     -0.16988321
C       1.31098218      1.57783135     -0.20013454
C       2.21690768      0.56048802      0.02512847
C       1.77145977     -0.71842281      0.27152984
C       0.42784061     -1.05365832      0.30790281
C       2.92310182     -1.58498358      0.47176550
O       2.89570816     -2.77541464      0.70976426
O       4.03256304     -0.79807295      0.33940627
C       3.69159368      0.57727561      0.05578045
H      -5.05801318      0.19895877     -0.46464636
H      -4.18803784     -1.34005308     -0.37625828
H      -4.54202533     -0.43261641      1.12316634
H      -2.06055346     -1.38389044      0.31615236
H      -0.75708527      2.08264603     -0.35024291
H       1.63640492      2.59527396     -0.39714659
H       0.13748887     -2.08018318      0.50719846
H       4.08410712      1.20899146      0.85723548
H       4.12484243      0.85484322     -0.90895467
