46
CCCCCC(=O)NCCNC(=O)CCCCC
C       7.75838003     -1.30255389      1.84882207
C       6.27641339     -1.37776414      1.51489618
C       6.03437198     -2.17681029      0.23392546
C       4.55297638     -2.35675637     -0.10651657
C       3.82888630     -1.04192381     -0.39683093
C       2.41705523     -1.26380076     -0.90659842
O       1.94581185     -2.36644224     -1.15808095
N       1.71373568     -0.09186129     -1.07176283
C       0.34055289     -0.08575449     -1.54060949
C      -0.65376222     -0.59927435     -0.49219771
N      -2.02760180     -0.55409051     -0.95632432
C      -2.74461152      0.62228385     -0.98007797
O      -2.27213686      1.69993607     -0.63481903
C      -4.15098851      0.45349661     -1.52392009
C      -5.07827209      1.61914361     -1.18231123
C      -5.49011313      1.61530904      0.29340614
C      -6.42138150      2.78468510      0.61411299
C      -6.86246707      2.75742509      2.06954405
H       8.17952667     -2.30150612      1.99383530
H       8.31549106     -0.80996566      1.04325138
H       7.91470411     -0.72979461      2.76913121
H       5.74338414     -1.84686870      2.35033160
H       5.88891273     -0.35871184      1.41158444
H       6.54953071     -1.69907950     -0.60754472
H       6.47869098     -3.17244267      0.34811014
H       4.48488993     -3.01349507     -0.98396323
H       4.04569451     -2.88283247      0.71219729
H       4.37531826     -0.47470246     -1.15864202
H       3.76759286     -0.43412572      0.51244299
H       2.12642593      0.78679894     -0.78045050
H       0.28290560     -0.69978517     -2.44190662
H       0.10475259      0.94241017     -1.82567115
H      -0.57330257      0.00257486      0.42036844
H      -0.44024234     -1.63988417     -0.22069344
H      -2.44154527     -1.40350558     -1.31665125
H      -4.57754029     -0.48781131     -1.15754979
H      -4.06062037      0.37791822     -2.61506840
H      -4.60184906      2.57385924     -1.43321921
H      -5.97941097      1.53850347     -1.80223951
H      -5.99356113      0.67049418      0.52832543
H      -4.60168589      1.67331764      0.93362749
H      -5.91309378      3.73222186      0.40627433
H      -7.30785945      2.74384251     -0.02980574
H      -7.40914279      1.83173412      2.28989806
H      -7.52424229      3.60310764      2.28629406
H      -6.00057290      2.81846589      2.74307605
