17
Cc1cccc(N)c1
C      -2.44166479     -0.63824498     -0.04493770
C      -1.05877250     -0.06000416      0.00439492
C      -0.86821647      1.32519654     -0.01287276
C       0.42098610      1.85483685     -0.03381467
C       1.52738381      1.00329616     -0.02825015
C       1.36001897     -0.38127780      0.03687200
N       2.46660914     -1.23184286     -0.08228817
C       0.06302943     -0.90281370     -0.00430265
H      -2.48113492     -1.60005626      0.47714616
H      -3.16098889      0.02632731      0.44510836
H      -2.74859072     -0.78650542     -1.08480910
H      -1.72185856      1.99862849     -0.02997360
H       0.56592087      2.93103209     -0.07172213
H       2.52419391      1.43238231     -0.07837012
H       2.30314807     -2.16419835      0.28388122
H       3.32947688     -0.82669641      0.26614715
H      -0.07954031     -1.98005980     -0.04220877
