20
NC(=S)Nc1cccc([N+](=O)[O-])c1
N      -2.48174046      1.50849067      0.34636839
C      -2.78477208      0.35453127     -0.27649848
S      -4.31626858      0.11604701     -0.87880150
N      -1.85249682     -0.62199413     -0.37747967
C      -0.45494529     -0.61538706     -0.19575016
C       0.18233218     -1.86481057     -0.15650141
C       1.56723243     -1.96560903      0.00683428
C       2.33938111     -0.81295319      0.12069566
C       1.71151643      0.43629582      0.05787312
N       2.51987562      1.65593009      0.16198887
O       1.92486235      2.72592648      0.35347200
O       3.74968235      1.54180536      0.06215735
C       0.32106646      0.54141888     -0.10836293
H      -1.84847224      1.46113331      1.13407079
H      -3.25880706      2.14610487      0.48298252
H      -2.25205143     -1.50179618     -0.69034564
H      -0.39662103     -2.78289240     -0.23997003
H       2.03995015     -2.94478810      0.04435887
H       3.41639745     -0.90155065      0.24827132
H      -0.12612154      1.52409756     -0.21905058
