14
C=CSC(C)O
C       2.95749583     -0.05847787      0.57900528
C       1.71659142      0.30673366      0.24233783
S       0.37969075     -0.77186887      0.44567326
C      -0.99209128      0.28675871     -0.09982717
C      -2.31370182     -0.44252918      0.08184450
O      -0.83794196      0.61461188     -1.47259153
H       3.78871364      0.62606629      0.44490641
H       3.17978818     -1.03720563      0.99333069
H       1.53950947      1.29695313     -0.17096643
H      -1.00050804      1.21548743      0.47949073
H      -3.14046887      0.19285509     -0.25591593
H      -2.49458669     -0.70550935      1.12912764
H      -2.35995520     -1.35201929     -0.52851259
H      -0.42253543     -0.17185600     -1.86790268
