46
CC(C)OC(=O)C1(S(=O)(=O)c2ccc(Cl)cc2)CCCCCC1
C      -1.80076093     -3.30163531      0.23021649
C      -2.41596268     -1.98703155     -0.23212066
C      -3.86194648     -1.87375482      0.23468486
O      -1.70016685     -0.88116344      0.35145058
C      -0.57155010     -0.46506826     -0.28223674
O      -0.12056402     -0.99715670     -1.28979773
C       0.06700181      0.73693639      0.40128334
S       1.20713282      0.00471741      1.62409146
O       0.49258142     -0.96802660      2.43136080
O       1.91221150      1.08935690      2.28790111
C       2.44889753     -0.90509003      0.71865231
C       3.63546819     -0.26655331      0.33992028
C       4.62397203     -0.98980707     -0.33102947
C       4.43152014     -2.34544751     -0.59881624
Cl      5.65166236     -3.23312678     -1.42503805
C       3.26329878     -2.98945350     -0.19079811
C       2.27181186     -2.27171370      0.48173402
C      -0.95234428      1.60655567      1.18816108
C      -2.10930863      2.17701031      0.36520610
C      -1.83259231      3.52860053     -0.28117676
C      -0.47787255      3.69525905     -0.95777003
C       0.07989928      2.43136021     -1.60259338
C       0.87955010      1.56915202     -0.62130961
H      -1.74218816     -3.34488693      1.32329614
H      -0.77805089     -3.40419768     -0.14452155
H      -2.38055533     -4.15837752     -0.12668461
H      -2.39732020     -1.91832195     -1.32650161
H      -4.28940096     -0.91580658     -0.08118973
H      -3.92571207     -1.90049928      1.32822681
H      -4.47698962     -2.68148781     -0.17342979
H       3.80374704      0.78438533      0.56606971
H       5.54375390     -0.49524330     -0.63344126
H       3.12226665     -4.04950398     -0.38667772
H       1.37496879     -2.78726768      0.81659006
H      -0.43159505      2.42096689      1.70839459
H      -1.39512140      0.99667007      1.98769314
H      -2.43413275      1.46865849     -0.40426329
H      -2.97538558      2.30372880      1.02789338
H      -2.62332566      3.71566640     -1.01921921
H      -1.94004502      4.31942351      0.47214742
H       0.24399330      4.09525728     -0.23478383
H      -0.58269037      4.47026444     -1.72780717
H       0.77537615      2.74695836     -2.39143885
H      -0.70385236      1.85182423     -2.10237019
H       1.50153710      0.90003484     -1.22886806
H       1.58878348      2.21783412     -0.09109002
