22
Cc1ccc(S(N)(=O)=O)cc1N
C      -3.11914650      0.54119551     -0.45154072
C      -1.64520179      0.41494716     -0.17529549
C      -0.82160412      1.54096048     -0.35602412
C       0.55375464      1.45906749     -0.14685021
C       1.11276713      0.23744407      0.22157820
S       2.85402458      0.11142241      0.48268751
N       3.40048159     -0.37400413     -1.02796690
O       3.12415790     -0.99021188      1.37712973
O       3.40178344      1.43097163      0.69596912
C       0.30560858     -0.88544225      0.42304839
C      -1.08300683     -0.79589420      0.27482536
N      -1.84761963     -1.96869003      0.37025113
H      -3.68967843      0.40370081      0.47252991
H      -3.37078575      1.52803650     -0.85449061
H      -3.43420590     -0.20246951     -1.19067018
H      -1.25053009      2.48963270     -0.67296778
H       1.17628319      2.33906720     -0.28977002
H       4.01610185      0.33831541     -1.42036001
H       3.82421317     -1.29963149     -0.96405670
H       0.76026455     -1.83377775      0.69984335
H      -1.44106101     -2.67575496      0.97564402
H      -2.82660055     -1.80888515      0.58330337
