7
C#CCBr
C       1.73275586     -0.30679318     -0.05474609
C       0.53876807     -0.17710024     -0.07738251
C      -0.91420184     -0.02467383     -0.10560417
Br     -1.41402520      1.84440173      0.11184490
H       2.79288623     -0.41553210     -0.03384549
H      -1.39684798     -0.57065020      0.70886357
H      -1.33933514     -0.34965218     -1.05851861
