37
CN1C2CCC1CC(OC(=O)c1ccccc1)C2
C      -4.11260814      1.76849539      0.66019451
N      -2.77584856      1.19525603      0.51867207
C      -2.51644871      0.68009546     -0.83850431
C      -3.21366921     -0.68465283     -0.86913529
C      -3.25094986     -1.13231807      0.59456306
C      -2.57121076      0.00544835      1.36434145
C      -1.04803941     -0.19081277      1.46391248
C      -0.39587838     -0.39979147      0.08840135
O       1.02169458     -0.18314400      0.22708756
C       1.80860252     -0.75461182     -0.71761962
O       1.42440826     -1.44173025     -1.65097238
C       3.24044385     -0.43540835     -0.46647364
C       4.20126211     -0.98176520     -1.32878971
C       5.55737744     -0.71110066     -1.13518357
C       5.96109165      0.10664386     -0.08066585
C       5.01195102      0.65534843      0.78124441
C       3.65410742      0.38679536      0.59098551
C      -0.98804055      0.55091049     -0.96480156
H      -4.26040596      2.12577491      1.68526441
H      -4.21736740      2.64088817      0.00580807
H      -4.92248605      1.07029155      0.42530944
H      -2.88411203      1.34869624     -1.62498060
H      -4.23840369     -0.58697459     -1.24681651
H      -2.69668249     -1.41059335     -1.50518083
H      -4.29352584     -1.24655691      0.91438807
H      -2.75529069     -2.09775204      0.73944023
H      -2.98238204      0.12404157      2.37309502
H      -0.59330997      0.67646702      1.96224837
H      -0.81762795     -1.05134047      2.10462710
H      -0.56905812     -1.44180009     -0.21120723
H       3.89613611     -1.62075409     -2.15545013
H       6.29735015     -1.13806321     -1.80766795
H       7.01725467      0.31755355      0.06926787
H       5.32865982      1.29410029      1.60225643
H       2.93095384      0.82678459      1.27334631
H      -0.52099576      1.54094746     -0.87230586
H      -0.72695185      0.19463144     -1.96869867
