9
O.O.[Ba+2].[Cl-].[Cl-]
O      -0.00650185      0.38840325     -0.00000000
O      -0.00344155      0.38033241     -0.00000000
Ba      0.00000000      0.00000000      0.00000000
Cl      0.00000000      0.00000000      0.00000000
Cl      0.00000000      0.00000000      0.00000000
H      -0.79892061     -0.19659797     -0.00000000
H       0.80542246     -0.19180528      0.00000000
H      -0.81331853     -0.19139508     -0.00000000
H       0.81676008     -0.18893733      0.00000000
