30
CC(C)(C)C(=O)Oc1ccccc1C(=O)O
C      -2.88869343      0.12302906     -1.04980318
C      -2.22447355      0.17931217      0.33263749
C      -2.91896099      1.25978836      1.17745439
C      -2.36378445     -1.17140080      1.04556746
C      -0.74394130      0.54170184      0.16203480
O      -0.22713038      1.57608021      0.56984416
O      -0.09013808     -0.45383558     -0.56318311
C       1.25824416     -0.16624202     -0.79904632
C       1.57259551      0.35401249     -2.05932048
C       2.89807246      0.64501572     -2.37563202
C       3.90485649      0.40644605     -1.44114184
C       3.58952210     -0.13111478     -0.18892060
C       2.25938219     -0.43138601      0.14535711
C       1.92539961     -1.03235440      1.46198116
O       0.84568097     -1.46452245      1.81944743
O       2.98382504     -1.07293057      2.29454757
H      -2.46046609     -0.67195010     -1.67072914
H      -2.75219853      1.06625948     -1.59129084
H      -3.96465879     -0.06622526     -0.96595178
H      -3.98128526      1.03199339      1.32003980
H      -2.84999111      2.24407222      0.69977204
H      -2.45845640      1.34488448      2.16863925
H      -1.90294260     -1.98304277      0.47175667
H      -1.87971822     -1.14959717      2.02825144
H      -3.41731954     -1.43205514      1.19707114
H       0.78748984      0.53935728     -2.78707016
H       3.14667498      1.05978128     -3.34949786
H       4.93930483      0.63606746     -1.68652967
H       4.39467796     -0.31562338      0.51881342
H       2.61843256     -1.46552108      3.11490167
