29
O=C(CC(=O)c1ccccc1)c1ccccc1
O      -0.65554033      1.29415293     -2.07339971
C      -0.88526182      0.23931614     -1.48009672
C      -0.05920911     -0.98765006     -1.76629587
C       0.81483603     -1.42748032     -0.62073346
O       0.58482367     -2.48711519     -0.03615911
C       1.96710243     -0.58099763     -0.18351309
C       2.38973543      0.55011403     -0.89143603
C       3.47444541      1.30262294     -0.43060799
C       4.14492332      0.92977712      0.73297523
C       3.73481074     -0.19753806      1.44044882
C       2.65118343     -0.95064417      0.98412280
C      -1.98911501      0.18685060     -0.47303861
C      -2.62240209      1.38943516     -0.12559592
C      -3.65938866      1.40121770      0.80937430
C      -4.07330798      0.21150428      1.40334777
C      -3.45330090     -0.98899175      1.06147087
C      -2.41545087     -1.00492375      0.12453880
H      -0.72414885     -1.80901816     -2.05737095
H       0.56638726     -0.81157996     -2.64898758
H       1.90035739      0.87604766     -1.80490134
H       3.79526756      2.18327388     -0.98272563
H       4.98771840      1.51813268      1.08763335
H       4.25679845     -0.49209499      2.34753160
H       2.34272697     -1.82948908      1.54789442
H      -2.31032783      2.32756323     -0.58153308
H      -4.14214185      2.33914968      1.07256241
H      -4.87976196      0.21905097      2.13260862
H      -3.77706787     -1.91790563      1.52579866
H      -1.96469137     -1.96414146     -0.11391257
