67
NC(=CC(=O)[C@@H](Cc1ccccc1)N(Cc1ccccc1)Cc1ccccc1)Cc1ccccc1
N       3.10841885     -0.58993506     -2.16481452
C       2.82029381      0.52569627     -1.38997597
C       1.66921346      0.69947338     -0.71283431
C       0.55369715     -0.30257403     -0.69079200
O       0.74457663     -1.45466068     -1.08547823
C      -0.80862897      0.19606977     -0.14748934
C      -1.68372296      0.67892692     -1.32534637
C      -1.17897756      1.96360493     -1.95006338
C      -0.41001686      1.93380979     -3.12135227
C       0.08481814      3.11679980     -3.67136229
C      -0.18922326      4.33901185     -3.06124004
C      -0.95910390      4.38043029     -1.90049601
C      -1.45186521      3.19861175     -1.34599549
N      -1.46049131     -0.79896220      0.76169355
C      -0.55444635     -1.19891680      1.85428303
C      -1.29722578     -1.64753116      3.09642128
C      -1.15572313     -2.95483377      3.58264758
C      -1.83816015     -3.36082339      4.73092047
C      -2.66460828     -2.46471750      5.40655729
C      -2.81015154     -1.16146772      4.93597868
C      -2.12912995     -0.75413876      3.78814805
C      -2.04754098     -1.97739274      0.09429390
C      -3.47847034     -1.76290238     -0.36003508
C      -4.45251669     -1.29018787      0.53214551
C      -5.77380662     -1.11687530      0.11738972
C      -6.13961745     -1.42356208     -1.19156006
C      -5.18641794     -1.90965229     -2.08418134
C      -3.86475404     -2.08505097     -1.66976927
C       3.87824006      1.62425061     -1.36102354
C       5.14484205      1.21341854     -0.64174333
C       6.28837253      0.84669516     -1.36626009
C       7.45162674      0.45452700     -0.70236248
C       7.48364602      0.42370359      0.69054313
C       6.35296991      0.78457991      1.42133431
C       5.18823019      1.17656245      0.75958912
H       2.45634020     -1.36101657     -1.97046585
H       4.07227367     -0.90092010     -2.05179501
H       1.48811853      1.61599703     -0.16234228
H      -0.60910399      1.06752557      0.49114183
H      -1.74773653     -0.09037403     -2.10452340
H      -2.70834323      0.86959304     -0.98240498
H      -0.17998838      0.98778963     -3.60875373
H       0.68423687      3.08244676     -4.57756666
H       0.19224455      5.25984005     -3.49436409
H      -1.18038678      5.33481545     -1.42992270
H      -2.05626236      3.24674261     -0.44249555
H       0.06546876     -0.34896585      2.17134921
H       0.14633909     -1.97631124      1.52370955
H      -0.51767828     -3.66782670      3.06554677
H      -1.72668039     -4.37796043      5.09695415
H      -3.19680068     -2.78366225      6.29886086
H      -3.45644882     -0.46259006      5.46001823
H      -2.25595896      0.26238640      3.42249847
H      -2.09586132     -2.83582490      0.77715904
H      -1.43278037     -2.32094461     -0.74326859
H      -4.17946224     -1.05604451      1.55878039
H      -6.51633562     -0.74628673      0.81856008
H      -7.16856137     -1.28890869     -1.51404905
H      -5.47186111     -2.15559290     -3.10338533
H      -3.13483312     -2.47104531     -2.37817000
H       4.11230944      1.91669050     -2.39347425
H       3.49205074      2.53680139     -0.88706643
H       6.27721769      0.86250238     -2.45423857
H       8.33312085      0.17142350     -1.27224948
H       8.38970261      0.11741076      1.20663241
H       6.37781388      0.75877198      2.50766286
H       4.31350038      1.45155053      1.34389190
