54
CC(=O)C1CCC2C3CCC4=CC(=O)CCC4(C)C3C(O)CC12C
C       5.41225920      1.17552881      0.87828224
C       4.45455554      0.66521998     -0.16734384
O       4.49406711      1.09569559     -1.31973048
C       3.43910425     -0.38112267      0.28066918
C       3.27474080     -1.51593875     -0.73739861
C       1.80708159     -1.94216580     -0.66738240
C       1.19204760     -1.16285281      0.50923688
C      -0.34271922     -0.97085094      0.45749160
C      -1.06704872     -2.33563006      0.34186952
C      -2.41752311     -2.27297597     -0.36612957
C      -3.10722211     -0.98496360     -0.03234071
C      -4.23247602     -0.98013954      0.70279544
C      -4.90483354      0.28278682      1.08142156
O      -5.96939918      0.23640421      1.69359829
C      -4.27717526      1.58790668      0.66342295
C      -2.77605585      1.44498212      0.42656816
C      -2.40379670      0.28212362     -0.53310805
C      -2.95246545      0.58559339     -1.94955661
C      -0.82691830      0.04573395     -0.61416659
C       0.00767859      1.34848285     -0.56532233
O      -0.33190046      2.16904236     -1.67979960
C       1.51476495      1.08880255     -0.60147887
C       2.00367087      0.15253735      0.52425618
C       1.91110681      0.85610781      1.88788370
H       4.86064603      1.66556477      1.68227455
H       5.99950131      0.34425040      1.27296418
H       6.09363730      1.90251448      0.42813950
H       3.82376529     -0.83490330      1.20517393
H       3.53447165     -1.22019260     -1.75962267
H       3.93263941     -2.35328634     -0.47716409
H       1.30884973     -1.71019889     -1.61481007
H       1.73263809     -3.02441625     -0.51797722
H       1.42052241     -1.72987866      1.42474159
H      -0.63213372     -0.55026514      1.43171131
H      -1.20403480     -2.73447423      1.35615725
H      -0.46102601     -3.07997668     -0.18435994
H      -2.27589756     -2.33733227     -1.45193527
H      -3.01651016     -3.14780137     -0.08608724
H      -4.70828397     -1.88739475      1.05801626
H      -4.78957231      1.94731460     -0.23508335
H      -4.44197567      2.31930043      1.46301565
H      -2.28657151      1.28645769      1.39727889
H      -2.41099468      2.40306508      0.03937292
H      -2.60445083     -0.15197609     -2.68168853
H      -4.04794134      0.56291276     -1.98008665
H      -2.64572073      1.57431826     -2.30182979
H      -0.62936559     -0.41205033     -1.59517577
H      -0.22099405      1.91981389      0.33898387
H       0.28539137      2.92149385     -1.70138312
H       2.03912016      2.05207595     -0.54404441
H       1.77243207      0.68981746     -1.59129899
H       2.47110695      1.79724610      1.88542721
H       0.87814157      1.08989640      2.16412660
H       2.32106622      0.22779685      2.68690359
