40
O=C(/C=C/C=C/c1ccc2c(c1)OCO2)N1CCCCC1
O       2.52363123     -2.40451443      0.33412313
C       2.51407061     -1.17557870      0.30786609
C       1.22352720     -0.44087348      0.37431837
C       0.10354608     -1.02315405     -0.07892384
C      -1.19428815     -0.38750431     -0.01790372
C      -2.31134814     -0.98315049     -0.46382538
C      -3.64594776     -0.36949904     -0.40673428
C      -3.85270634      0.99659066     -0.70562997
C      -5.13488860      1.55744143     -0.67397114
C      -6.18732523      0.73013852     -0.35230551
C      -5.99907801     -0.60247100     -0.07451309
C      -4.74724972     -1.18234226     -0.09871773
O      -7.16496344     -1.24205331      0.21179729
C      -8.10757380     -0.15723129      0.08522761
O      -7.49386965      1.09773400     -0.27572188
N       3.67199818     -0.40041243      0.25366819
C       3.70292391      0.92849820     -0.36614156
C       4.85991021      1.77718481      0.15253977
C       6.18821862      1.03928979      0.02999187
C       6.10630666     -0.31358404      0.72723345
C       4.93435199     -1.13834553      0.20473073
H       1.21418655      0.53238765      0.84439914
H       0.15513948     -2.02142078     -0.51301710
H      -1.24124028      0.60505303      0.42482978
H      -2.27428677     -1.98930820     -0.87666921
H      -3.01295386      1.63203681     -0.97833029
H      -5.29638048      2.60490331     -0.90119404
H      -4.63192758     -2.23753758      0.12529432
H      -8.84405878     -0.42073061     -0.68264324
H      -8.62729513     -0.03090657      1.04202163
H       2.76852433      1.47040511     -0.20777307
H       3.79800108      0.77509557     -1.44846641
H       4.68249377      2.02747425      1.20598178
H       4.90565571      2.72154015     -0.40098060
H       6.99080325      1.63942431      0.47262320
H       6.43628392      0.89609875     -1.02866644
H       5.98530369     -0.15474644      1.80617843
H       7.04217558     -0.86509354      0.58513914
H       4.85565693     -2.05885328      0.79425075
H       5.10467273     -1.43198501     -0.83851345
