15
Nc1cccnc1N
N       1.73675375     -1.19666143      0.13788398
C       0.50212828     -0.51349315      0.19891229
C      -0.65974999     -1.17804562      0.58104423
C      -1.87982357     -0.50983692      0.53008228
C      -1.89714420      0.79310624      0.05767166
N      -0.80320256      1.45320298     -0.38077554
C       0.36200650      0.78412586     -0.33227510
N       1.49263815      1.45226984     -0.83307401
H       2.49896203     -0.51865670      0.18104816
H       1.82600557     -1.90951640      0.85470132
H      -0.62205354     -2.20767060      0.92211707
H      -2.79647484     -0.99652903      0.84347681
H      -2.82563108      1.35483607      0.00552445
H       1.14746023      2.32664399     -1.22104082
H       1.91812525      0.86622487     -1.54529680
