22
CC(=O)Nc1ccc(C)cc1
C       4.14364294      0.28234187      0.23750194
C       2.73651152      0.75352728     -0.03526366
O       2.52557726      1.89289404     -0.43462595
N       1.80115054     -0.23980447      0.19145819
C       0.40197168     -0.15458802      0.03610189
C      -0.34421649     -1.30540034      0.31867370
C      -1.73700755     -1.30546379      0.19032065
C      -2.40796207     -0.15551946     -0.23357998
C      -3.90353281     -0.13907754     -0.34082200
C      -1.66465224      0.99803399     -0.50099711
C      -0.27050868      0.99689186     -0.37199894
H       4.17285884     -0.37955416      1.10786095
H       4.78151809      1.14577979      0.44756639
H       4.52509523     -0.24605314     -0.64009715
H       2.15554193     -1.13719546      0.49593995
H       0.14376471     -2.21964257      0.64543492
H      -2.29310491     -2.21076130      0.42302361
H      -4.34381431      0.16679517      0.61317775
H      -4.23152789      0.55546737     -1.12137011
H      -4.28707100     -1.12986395     -0.60627964
H      -2.16242079      1.91332116     -0.81451037
H       0.25818599      1.91787166     -0.59648750
