29
CCC(C)c1cc([N+](=O)[O-])cc([N+](=O)[O-])c1O
C       3.60050408     -0.06752072     -1.10746795
C       2.13624403      0.32168732     -0.95492058
C       1.42074917     -0.42522972      0.18996273
C       2.00206062     -0.08712380      1.56902066
C      -0.08387467     -0.14877409      0.14733850
C      -0.56645705      1.14982689      0.40662195
C      -1.94063886      1.42470126      0.36868200
N      -2.41673300      2.78800562      0.64476591
O      -3.63774687      2.98824388      0.59782237
O      -1.56953598      3.65219422      0.90708642
C      -2.86150459      0.41602367      0.06991458
C      -2.39135267     -0.87989639     -0.19514625
N      -3.37379091     -1.92463305     -0.51018155
O      -4.57129417     -1.61210044     -0.52200398
O      -2.94249229     -3.06396621     -0.74685994
C      -1.01152884     -1.16575259     -0.15974380
O      -0.49025538     -2.40780546     -0.41487286
H       4.19043831      0.24145820     -0.23977035
H       4.02817346      0.42141577     -1.98877764
H       3.70905617     -1.14910639     -1.23514427
H       1.62566741      0.10569722     -1.90249288
H       2.07375181      1.40698761     -0.80858951
H       1.59686321     -1.49701406      0.04070182
H       3.03261292     -0.44521005      1.65886475
H       1.42072557     -0.56464620      2.36602029
H       2.00823205      0.99142488      1.75889278
H       0.14117282      1.94649278      0.63625483
H      -3.92798326      0.63688134      0.04227715
H      -1.20106307     -3.05226147     -0.61825518
