30
O=C(O)CN1C(=O)NC(=O)C1Cc1ccccc1
O      -2.11377196      3.08804929      0.54327217
C      -2.00710871      1.87972340      0.69204466
O      -2.19393612      1.33889965      1.91434259
C      -1.66383699      0.88220759     -0.40914807
N      -1.59737418     -0.51331862      0.01355549
C      -2.75478595     -1.25882578      0.16924656
O      -3.86540528     -0.96430133     -0.23845069
N      -2.46310464     -2.35350283      0.91018115
C      -1.21085812     -2.26353140      1.42623387
O      -0.73245097     -3.03848842      2.24128940
C      -0.50709619     -1.04696236      0.82552470
C       0.71188158     -1.51729104      0.02805805
C       1.57997046     -0.38961361     -0.47619468
C       2.29508187      0.41611560      0.42119808
C       3.08613817      1.46601631     -0.04728084
C       3.17532790      1.71699047     -1.41487585
C       2.47784790      0.91556581     -2.31620203
C       1.68588328     -0.13497587     -1.85056581
H      -2.44575231      2.10628901      2.47085006
H      -0.70322159      1.16511720     -0.84144532
H      -2.44225801      0.96859202     -1.17468980
H      -3.15730055     -3.00892206      1.22513176
H      -0.26508001     -0.35138226      1.63472528
H       1.34177128     -2.16557115      0.65204915
H       0.39011061     -2.14586613     -0.81325772
H       2.24809860      0.22971449      1.49205784
H       3.63755599      2.08652866      0.65470311
H       3.79308429      2.53397701     -1.77881478
H       2.55221486      1.10803499     -3.38355818
H       1.14837479     -0.74926866     -2.56998018
