26
O=P(OCCCl)(OCCCl)OCCCl
O       0.05319124      0.43308421     -2.22844389
P       0.29230285      0.40629717     -0.75238729
O       1.66113190     -0.29255052     -0.28419064
C       2.03917992     -0.19402743      1.08202893
C       3.01750379     -1.30429750      1.43403355
Cl      4.60748914     -1.02346033      0.67485467
O      -0.83594605     -0.39066740      0.07367311
C      -1.18047795     -1.68282753     -0.40533132
C      -1.76693064     -2.51437699      0.72448472
Cl     -0.50052566     -2.97081013      1.89755242
O       0.32180437      1.84861929     -0.04120316
C      -0.48465432      2.88358447     -0.58658195
C      -1.98088582      2.60940281     -0.48488201
Cl     -2.50462991      2.52134605      1.21617396
H       1.15180696     -0.28779302      1.71577625
H       2.47913912      0.79286888      1.26070002
H       3.17879004     -1.34870290      2.51447571
H       2.65992135     -2.27525431      1.08021670
H      -1.93049287     -1.55425054     -1.19245959
H      -0.30715557     -2.17879733     -0.84396416
H      -2.52973612     -1.95608867      1.27456043
H      -2.20113644     -3.44072668      0.33907392
H      -0.23291311      3.80934899     -0.05792298
H      -0.20249109      3.03140108     -1.63462974
H      -2.25638084      1.66383948     -0.95765678
H      -2.54790431      3.41483886     -0.96019532
