39
C=CC(=O)O[Si](C(C)C)(C(C)C)C(C)C
C       4.87527041     -0.50807018      0.58589803
C       3.64183169     -0.91231053      0.25734282
C       2.47512614     -0.02099719      0.44754692
O       2.53009576      1.10916748      0.90192699
O       1.37653733     -0.69172716      0.03389285
Si     -0.17553612     -0.06707770      0.04339614
C      -0.61818216      0.75489937      1.77523944
C      -0.32236757     -0.17977823      2.95539442
C      -2.06048735      1.26353506      1.85473552
C      -0.42218849      1.25610087     -1.38591100
C       0.27159705      2.59295419     -1.09776567
C       0.03158913      0.72698593     -2.75266783
C      -1.46518552     -1.55699576     -0.24580286
C      -2.77437623     -1.11416452     -0.90561083
C      -0.83537605     -2.71149122     -1.03605009
H       5.73003779     -1.16109915      0.44653159
H       5.05839424      0.48023123      0.99995989
H       3.45967906     -1.89703765     -0.15513704
H       0.04919373      1.62079881      1.85753745
H       0.72209896     -0.50974676      2.95340746
H      -0.95542016     -1.07347984      2.93290381
H      -0.50323926      0.33361595      3.90617235
H      -2.29758304      1.93694110      1.02441234
H      -2.21834106      1.81965042      2.78549866
H      -2.78019213      0.43831409      1.83891559
H      -1.50156147      1.44380876     -1.42726712
H       0.03236399      3.32345750     -1.87871409
H      -0.05272348      3.01923687     -0.14303232
H       1.36087180      2.48616298     -1.06910384
H       1.10379671      0.50003405     -2.76011062
H      -0.50454459     -0.18560333     -3.03046166
H      -0.15965843      1.46884989     -3.53583895
H      -1.69148332     -1.92288775      0.76265616
H      -3.48769952     -1.94536096     -0.93200041
H      -2.61648513     -0.78368665     -1.93749192
H      -3.24799153     -0.29203455     -0.36132073
H       0.05683431     -3.09846268     -0.53154010
H      -0.54157336     -2.40073660     -2.04412888
H      -1.54312213     -3.54199610     -1.13341247
