20
COC(=O)C(C)OC(C)=O
C      -3.19177073      0.93887258      0.26109833
O      -2.14507605      0.04239447      0.63539988
C      -0.98984934      0.21534499     -0.07183664
O      -0.83646732      1.03035841     -0.97370030
C       0.07852195     -0.76815097      0.41484316
C      -0.27171325     -2.17316837     -0.05660641
O       1.37319693     -0.45520512     -0.12023485
C       1.94496118      0.65723589      0.41738683
C       3.24041592      0.95560868     -0.27170060
O       1.48138500      1.31210221      1.34009714
H      -3.47901992      0.77718118     -0.78255290
H      -2.88527593      1.97694394      0.42386559
H      -4.05840550      0.73090507      0.89468442
H       0.12015841     -0.74911020      1.51096994
H      -1.23658448     -2.50365680      0.34039904
H       0.49836041     -2.88633420      0.25641201
H      -0.32086834     -2.21701214     -1.15070440
H       3.06582133      1.10655442     -1.34000541
H       3.94426837      0.13585824     -0.10832170
H       3.66794136      1.87327772      0.14229031
