40
C=C(C)C1(O)[C@H]2OC(=O)[C@@H]1[C@]1(O)[C@H]3O[C@H]3[C@]3(CO3)[C@]1(C)[C@@H]2O
C       3.50043175      1.22327846      1.09029291
C       3.04269912      0.16168010      0.40051429
C       4.01196913     -0.62930124     -0.45002352
C       1.59282195     -0.34017156      0.41289916
O       1.66299640     -1.73373768      0.70450386
C       0.62249181      0.35841748      1.38230232
O       0.33857360      1.61681655      0.75287906
C       0.49634846      1.43829918     -0.59373264
O       0.29371688      2.30015463     -1.43188029
C       0.84730059      0.00111335     -0.87384591
C      -0.45065509     -0.81785010     -1.05166344
O      -0.06571455     -2.17867255     -1.28024724
C      -1.19301845     -0.31879305     -2.28114050
O      -2.51483846     -0.81273452     -2.47775627
C      -2.38387906      0.46229619     -1.81718690
C      -2.41311455      0.44842996     -0.29728679
C      -2.92106483      1.62155084      0.52231623
O      -3.72346806      0.46216629      0.29308959
C      -1.47236259     -0.68315831      0.20109362
C      -2.31460160     -1.97559667      0.39674416
C      -0.67936522     -0.46200034      1.52989138
O      -1.50617519      0.06460869      2.56789362
H       4.54588644      1.51937600      1.04249082
H       2.87129844      1.84209656      1.72176000
H       4.11111940     -1.65238313     -0.07376651
H       5.01396244     -0.18614617     -0.45331043
H       3.67473305     -0.67129126     -1.48971860
H       1.35956791     -2.23405251     -0.08381517
H       1.05888701      0.54059332      2.37030239
H       1.49168603     -0.07590693     -1.75535777
H      -0.83434332     -2.61904067     -1.69887669
H      -0.61132523     -0.00517099     -3.13299393
H      -2.68199194      1.35009230     -2.35801100
H      -3.19442965      2.53108675     -0.00063330
H      -2.56915814      1.80354580      1.52607030
H      -3.01322694     -1.86367314      1.23406092
H      -1.67795329     -2.83894759      0.61969416
H      -2.91235356     -2.22574358     -0.48434978
H      -0.38211320     -1.44889688      1.90734996
H      -1.02133748     -0.00129160      3.40944794
