22
O=[N+]([O-])Cc1ccc2ccccc2n1
O      -4.07783101      0.93199031      1.16325575
N      -3.60331194     -0.18589461      0.90902486
O      -3.66768218     -1.17434857      1.65224576
C      -2.94260149     -0.35603827     -0.42295933
C      -1.50305620      0.04193758     -0.26750571
C      -1.13191690      1.37120254     -0.08508786
C       0.21944346      1.68088370      0.02936329
C       1.17685555      0.66410705     -0.04851940
C       2.55271963      0.93166157      0.06447383
C       3.47988228     -0.10492571     -0.01895416
C       3.03689352     -1.40792340     -0.21497419
C       1.66765834     -1.66834863     -0.32680571
C       0.72223651     -0.65446894     -0.24711046
N      -0.58539944     -0.95452786     -0.36160673
H      -3.05300942     -1.40546819     -0.71400417
H      -3.46641297      0.27564508     -1.14695057
H      -1.87340897      2.16350455     -0.02581610
H       0.51907160      2.71507732      0.18057288
H       2.90712141      1.94815495      0.21918626
H       4.54296667      0.10364951      0.07012041
H       3.75061627     -2.22518561     -0.27992120
H       1.32916530     -2.69068439     -0.47766262
