21
O=[N+]([O-])c1cc2c(cc1CO)OCO2
O      -2.56929414      1.95653363      1.01151176
N      -2.38643578      1.04376847      0.19394255
O      -3.26658379      0.51834568     -0.50335418
C      -1.01165303      0.60326454     -0.01901659
C      -0.05502345      1.60071985     -0.26715694
C       1.23519753      1.18313621     -0.49787330
C       1.58083242     -0.14801093     -0.48629144
C       0.65726320     -1.14493364     -0.23838638
C      -0.67893788     -0.77800849      0.00839546
C      -1.68804159     -1.85050718      0.31320422
O      -2.25408659     -1.57870869      1.58410562
O       2.90302000     -0.34156937     -0.73855587
C       3.35378413      1.01996493     -0.90048112
O       2.29587497      1.99165770     -0.76071753
H      -0.30964556      2.65527596     -0.28174118
H       0.97490205     -2.18329241     -0.22536000
H      -2.46857848     -1.88491327     -0.45302647
H      -1.21910917     -2.83907226      0.35790282
H      -3.01430424     -2.17692417      1.68921389
H       4.12295641      1.22723603     -0.14755864
H       3.79786301      1.12603740     -1.89687412
