28
CC(C)N1C(=O)c2ccccc2NS1(=O)=O
C      -2.88527420     -0.02079455     -1.42101231
C      -2.50920793      0.04875106      0.05641795
C      -2.96510528      1.35309905      0.70664532
N      -1.03753641     -0.14924064      0.24932022
C      -0.07022305      0.73128263     -0.31023842
O      -0.38298712      1.76953540     -0.88183785
C       1.36653714      0.39149566     -0.17041266
C       2.31831041      1.17171882     -0.84623036
C       3.68012703      0.90173975     -0.70496158
C       4.09882309     -0.13736372      0.12271475
C       3.15684613     -0.91503298      0.79861993
C       1.79032132     -0.67547792      0.62272675
N       0.86699997     -1.42744640      1.40041152
S      -0.60374714     -1.71426845      0.65799157
O      -1.47762682     -2.22715428      1.68570400
O      -0.35418901     -2.45653201     -0.55458610
H      -2.45171937      0.80097034     -1.99875062
H      -2.54196458     -0.95935958     -1.86852881
H      -3.97271759      0.03048592     -1.54159553
H      -3.05959121     -0.74985250      0.56708822
H      -2.56904586      2.23586558      0.19653928
H      -2.64352820      1.39833456      1.75276299
H      -4.05778770      1.42787804      0.68630076
H       2.00225204      1.99987308     -1.47886168
H       4.41266259      1.51132630     -1.22967211
H       5.16075909     -0.33686204      0.24895059
H       3.50327346     -1.70778641      1.45657091
H       1.22533921     -2.29518473      1.79792326
