27
Nc1ccc(N=Nc2ccccc2)c(N)n1
N      -5.34826429     -0.14788876     -0.41585995
C      -3.97143359     -0.18562628     -0.21159300
C      -3.19866312     -1.15906220     -0.82573661
C      -1.82204496     -1.15158911     -0.61781755
C      -1.24583098     -0.16182658      0.18273117
N       0.13688521     -0.12691528      0.46260489
N       0.81546788     -0.18258257     -0.58694143
C       2.18375271     -0.08685121     -0.27953099
C       2.99898904     -1.22062552     -0.36107875
C       4.36530893     -1.13313951     -0.08460112
C       4.92736370      0.09364490      0.26738722
C       4.12653715      1.23273564      0.34021500
C       2.76088367      1.14241472      0.06345909
C      -2.11590078      0.77310066      0.76860314
N      -1.63056295      1.81359876      1.57139338
N      -3.45337934      0.77398886      0.57285507
H      -5.71396389      0.61337462      0.15091061
H      -5.78785327     -1.03227667     -0.19112324
H      -3.65404446     -1.90630417     -1.46601707
H      -1.19854800     -1.90855740     -1.08365397
H       2.56321777     -2.17616133     -0.63935780
H       4.98977008     -2.02056110     -0.14622294
H       5.99101765      0.16286818      0.48160933
H       4.56337496      2.19092447      0.60903630
H       2.13655032      2.03112408      0.11408010
H      -0.98812349      1.46610797      2.27431612
H      -2.43050592      2.30608485      1.95625624
