46
O=S(=O)(O)c1cccc2cc(Nc3ccccc3)cc(Nc3ccccc3)c12
O      -4.04675262      3.99069466     -0.76394602
S      -3.38365161      2.80992731     -0.25080146
O      -3.35413314      2.54039784      1.17434568
O      -4.05050530      1.53767232     -0.98754005
C      -1.69199932      2.81539752     -0.82459596
C      -1.28898724      3.98314294     -1.49963494
C       0.00277164      4.09949982     -1.98066615
C       0.89624262      3.05660009     -1.78242411
C       0.52228423      1.88401179     -1.10514964
C       1.50508862      0.89389935     -0.94177762
C       1.25719805     -0.30029327     -0.27412177
N       2.24525083     -1.27082528     -0.04406788
C       3.64327193     -1.17927003      0.08137124
C       4.42460392     -2.30239879     -0.22810995
C       5.81984577     -2.25301691     -0.15956721
C       6.45648557     -1.07367341      0.21577901
C       5.69778656      0.05289385      0.52090738
C       4.30228881     -0.00061494      0.44871798
C      -0.02476040     -0.49850494      0.23008048
C      -1.05849310      0.44692431      0.05575849
N      -2.33715342      0.17445468      0.63434024
C      -2.92015244     -1.09058661      0.91152606
C      -2.78344866     -2.17467338      0.03436787
C      -3.42975064     -3.38652524      0.29016032
C      -4.24234032     -3.51985155      1.41321529
C      -4.41949827     -2.43825750      2.27242440
C      -3.77292856     -1.22695076      2.01501417
C      -0.79771613      1.70776205     -0.60014292
H      -3.69363413      0.71970088     -0.57015575
H      -1.97969587      4.81016425     -1.65739984
H       0.31567269      4.99870585     -2.50541490
H       1.90995029      3.17200990     -2.16589801
H       2.49491475      1.05303622     -1.36724585
H       1.88520836     -2.20516089      0.11733521
H       3.94961104     -3.22931276     -0.53950011
H       6.40679841     -3.13436213     -0.40405796
H       7.54102661     -1.03234407      0.27116631
H       6.18875372      0.97492780      0.82096888
H       3.73559152      0.88576561      0.71969765
H      -0.21955200     -1.40385603      0.80085643
H      -2.45429813      0.80298512      1.44612245
H      -2.18272277     -2.08384000     -0.86733619
H      -3.30843795     -4.22155651     -0.39517898
H      -4.74949995     -4.46090066      1.61065022
H      -5.06846428     -2.53296714      3.13952762
H      -3.94206969     -0.39083133      2.69039989
