17
Cc1ccc(N)cc1Cl
C       2.68400823      0.23668333      0.11937113
C       1.18955665      0.10468721      0.04663356
C       0.38545908      1.24231940      0.19736967
C      -1.00818309      1.14539842      0.12944722
C      -1.63194457     -0.08999128     -0.04931151
N      -3.01746302     -0.15947480     -0.23404520
C      -0.83393903     -1.21468698     -0.26331384
C       0.56136470     -1.12490530     -0.19668251
Cl      1.47575804     -2.57230882     -0.43780585
H       3.08835894     -0.41139559      0.90357060
H       3.13688556     -0.02383685     -0.84258917
H       2.98438620      1.26244954      0.35896101
H       0.83659050      2.21951704      0.35659015
H      -1.60375365      2.05056103      0.21881762
H      -3.53398492      0.58290731      0.22742090
H      -3.41472354     -1.07591334     -0.05100139
H      -1.29837607     -2.17201032     -0.48343239
