13
Oc1cc(Cl)c(Cl)c(Cl)c1Cl
O      -1.86371575     -1.75740137     -0.09430084
C      -0.85360323     -0.83542840     -0.04487557
C       0.44457618     -1.32814234     -0.07392003
C       1.52094904     -0.44124090     -0.02652502
Cl      3.10816121     -1.12937487     -0.06676536
C       1.29801807      0.94468399      0.05026477
Cl      2.65017740      2.03688865      0.10858803
C      -0.02222747      1.43742379      0.07934442
Cl     -0.32516640      3.14785334      0.17416189
C      -1.10059509      0.53899034      0.03131462
Cl     -2.75246824      1.06561271      0.06273776
H      -2.71458293     -1.27829324     -0.06663976
H       0.61047722     -2.40157170     -0.13338492
