22
CCC1OC(=O)c2ccccc21
C       3.33040711     -0.14241315      0.30203251
C       1.87951576     -0.59728016      0.38267684
C       0.95776352      0.27918076     -0.46487140
O       0.95412242      1.63135757      0.05468354
C      -0.29630381      2.04641333      0.41723538
O      -0.59611451      3.12648086      0.88408720
C      -1.19948411      0.94083939      0.13236191
C      -2.56893327      0.87967293      0.32381573
C      -3.21705468     -0.30399708     -0.02992986
C      -2.48774215     -1.38207685     -0.56033051
C      -1.10328786     -1.29041541     -0.74227662
C      -0.47036545     -0.11143094     -0.38359769
H       3.96655979     -0.80362103      0.89894552
H       3.45052914      0.87572366      0.68520216
H       3.69101962     -0.16676274     -0.73122401
H       1.81487921     -1.64175644      0.05562331
H       1.56930565     -0.56633396      1.43489344
H       1.28819668      0.32117417     -1.50881252
H      -3.11363386      1.72411533      0.73408773
H      -4.29286267     -0.39372688      0.10420019
H      -3.00853771     -2.29803345     -0.83306868
H      -0.54797881     -2.12710990     -1.15573416
