47
CC(C)c1ccccc1OP(=O)(Oc1ccccc1)Oc1ccccc1
C       2.22321216      1.10815459     -2.24992636
C       3.07941430      1.30449443     -0.99557855
C       2.65141275      2.55048124     -0.21605312
C       3.12766444      0.06000574     -0.11782746
C       4.37642307     -0.55586224      0.08949676
C       4.49435295     -1.69740146      0.88194864
C       3.36592832     -2.24177808      1.48353839
C       2.11821842     -1.64811025      1.29242112
C       1.99352861     -0.50683766      0.49469156
O       0.79117055      0.10702016      0.28210606
P      -0.65447280     -0.49438979      0.66344437
O      -0.88019973     -0.74369108      2.12912440
O      -0.77473695     -1.79565775     -0.28289202
C      -1.88487577     -2.58307260     -0.38976699
C      -3.03562327     -2.42884753      0.38021766
C      -4.11976313     -3.28971079      0.18948666
C      -4.05351092     -4.30244906     -0.76672386
C      -2.90125072     -4.45840547     -1.53425235
C      -1.81826578     -3.59956891     -1.34431386
O      -1.67603123      0.55173404     -0.01989826
C      -1.82615860      1.85466316      0.35939070
C      -2.63335206      2.63854752     -0.46665702
C      -2.84595395      3.98503905     -0.16960812
C      -2.25262407      4.54914119      0.95771233
C      -1.45081727      3.76548878      1.78668476
C      -1.23767087      2.41678256      1.49005639
H       2.32990318      1.96678272     -2.92203755
H       2.53352319      0.21264958     -2.79957100
H       1.15833787      1.00679904     -2.01951440
H       4.09914577      1.50380945     -1.35323248
H       3.27631469      2.68993322      0.67295668
H       1.60983910      2.49869722      0.11321837
H       2.75273508      3.44530534     -0.83987977
H       5.27474194     -0.14613316     -0.36837866
H       5.46756430     -2.15784232      1.03147708
H       3.45489541     -3.12788627      2.10703904
H       1.26380209     -2.09749987      1.78996263
H      -3.12145238     -1.65770414      1.13991079
H      -5.01695502     -3.17075104      0.79221280
H      -4.89863451     -4.97071877     -0.91080233
H      -2.84493012     -5.24790947     -2.27898017
H      -0.92019342     -3.72441135     -1.94402589
H      -3.09779988      2.20134654     -1.34690302
H      -3.47410113      4.59184734     -0.81636048
H      -2.41703758      5.59757992      1.19289701
H      -0.99177021      4.20376197      2.66960296
H      -0.61394680      1.83657424      2.16358656
