20
O=[N+]([O-])OCC(CO[N+](=O)[O-])O[N+](=O)[O-]
O      -2.96427810      2.96947330      0.73597045
N      -2.74750386      2.01849227     -0.01026079
O      -3.37419132      1.61684627     -0.99063082
O      -1.57110549      1.30852857      0.33776598
C      -1.32908063      0.19588461     -0.51774144
C      -0.04102199     -0.51101316     -0.06922312
C       1.17599804      0.40733701     -0.27506681
O       2.31833928     -0.24055532      0.28982964
N       3.50529085      0.51563347      0.12878970
O       3.40541451      1.59582363     -0.45404558
O       4.48984898     -0.03624629      0.61304464
O       0.18278510     -1.67640937     -0.87340406
N      -0.48284229     -2.83402001     -0.40056213
O      -0.22990567     -3.83200905     -1.06901449
O      -1.22778055     -2.69443681      0.56892961
H      -1.21618349      0.52355451     -1.55986987
H      -2.17213767     -0.50375984     -0.47152301
H      -0.07131702     -0.75341833      1.00172963
H       1.01289220      1.36634963      0.23054954
H       1.33677911      0.56394491     -1.34942222
