30
CCC1CCC(CCC(=O)O)C1
C       3.25234696      1.71883650     -0.49640147
C       3.04225581      0.21218872     -0.47182956
C       1.79201163     -0.19916043      0.30666340
C       1.61148944     -1.71969018      0.36835357
C       0.10278159     -1.96737164      0.43922212
C      -0.56130634     -0.58626296      0.39226450
C      -1.92644964     -0.61443926     -0.29785974
C      -2.61195411      0.75184548     -0.30386094
C      -3.98855713      0.67913270     -0.90796839
O      -4.53547919     -0.29190308     -1.40069799
O      -4.61831927      1.87010453     -0.86349035
C       0.47926443      0.29093703     -0.30308305
H       4.18887921      1.95977249     -1.00943329
H       3.30833269      2.12406291      0.51887744
H       2.44124319      2.22644184     -1.02711751
H       2.98613844     -0.15686722     -1.50307890
H       3.92126881     -0.25814198     -0.01465708
H       1.86849298      0.18247491      1.33431749
H       2.02000177     -2.20883974     -0.52400053
H       2.12849373     -2.14337833      1.23598791
H      -0.17147752     -2.50272503      1.35463758
H      -0.20551807     -2.59277547     -0.40696396
H      -0.69001781     -0.23022067      1.42387487
H      -2.56973126     -1.34172119      0.21437499
H      -1.81938731     -0.97304267     -1.32987522
H      -2.02595837      1.46811006     -0.88909614
H      -2.70915958      1.12118801      0.72298789
H      -5.48677553      1.69382897     -1.28250444
H       0.31135792      1.35456163     -0.10721701
H       0.46573252      0.13305406     -1.38854612
