50
CC(C)(C)C(=O)OCn1cnc2c(cnn2COC(=O)C(C)(C)C)c1=O
C      -6.11251406      0.26383032      1.37290389
C      -6.04446727      0.16777477     -0.15706773
C      -5.66486357      1.52551075     -0.76226557
C      -7.42117344     -0.25433771     -0.69375032
C      -4.99946960     -0.87566714     -0.55726782
O      -5.22248596     -1.87362831     -1.22944791
O      -3.76858890     -0.54587732     -0.07753914
C      -2.77061094     -1.52160502     -0.37569407
N      -1.51794716     -1.03890921      0.15461500
C      -0.76523840     -0.13749603     -0.59203998
N       0.36546765      0.39530482     -0.23238202
C       0.76639725     -0.01206881      0.99536525
C       0.11546296     -0.87467057      1.84094856
C       0.92048729     -0.96803487      2.98117624
N       2.02327352     -0.21401406      2.88013299
N       1.91163700      0.35745311      1.64884632
C       2.94106762      1.25938852      1.15801254
O       3.93463671      0.47381137      0.49722722
C       4.95088275      1.22122627     -0.00588284
O       5.01177485      2.44079287      0.08031232
C       5.99508760      0.33797722     -0.69261986
C       5.33872434     -0.41577834     -1.85688407
C       7.12976581      1.21752362     -1.24098227
C       6.57699865     -0.65170003      0.32540387
C      -1.13479261     -1.45041376      1.43311746
O      -1.77459255     -2.21564718      2.14566303
H      -5.16528978      0.61422733      1.79833853
H      -6.32644814     -0.71402037      1.81955801
H      -6.89557020      0.96056450      1.69217342
H      -4.70848102      1.88909394     -0.36962614
H      -6.42337397      2.28456284     -0.54087717
H      -5.56265561      1.45640607     -1.85141370
H      -7.41244402     -0.34050474     -1.78655848
H      -8.19433545      0.47310186     -0.42214893
H      -7.72234397     -1.22874654     -0.29181159
H      -3.03533174     -2.48368279      0.07716423
H      -2.67419336     -1.63328457     -1.46238411
H      -1.20448225      0.11878507     -1.57036666
H       0.75575613     -1.54813453      3.88051450
H       3.36337879      1.78282515      2.02334269
H       2.47284809      1.96916833      0.46741890
H       4.87240395      0.28038842     -2.56354156
H       4.55396364     -1.09573434     -1.50640104
H       6.07361757     -1.01448530     -2.40643429
H       7.89596287      0.61348859     -1.73978742
H       7.61864830      1.78148742     -0.43807058
H       6.75209765      1.94561932     -1.96828861
H       6.99956691     -0.12524409      1.18896049
H       7.37088208     -1.26012361     -0.12193657
H       5.81090398     -1.33650324      0.70636907
