43
C1CCN2C[C@@H]3C[C@@H](CN4CCCC[C@H]34)[C@@H]2C1
C      -4.07511778      0.47042575     -0.72230740
C      -4.03059588     -1.05062297     -0.58297664
C      -2.73461535     -1.56369569      0.05341976
N      -1.59007513     -0.81498933     -0.44909732
C      -0.29851715     -1.47381232     -0.25183885
C       0.53651618     -1.04355921      0.98164588
C      -0.25536468     -0.07902519      1.86603971
C      -0.64519614      1.10225917      0.98180190
C       0.64129118      1.77680753      0.44642305
N       1.57708713      0.86611701     -0.23354701
C       2.80481667      1.57825928     -0.61224673
C       3.77138056      0.66954590     -1.37073956
C       4.10625146     -0.57648003     -0.56098046
C       2.82678814     -1.29292090     -0.14145039
C       1.86070024     -0.33381119      0.58053788
C      -1.60781886      0.63208113     -0.15066054
C      -3.03816657      1.13177861      0.17348945
H      -3.87960034      0.74600922     -1.76626166
H      -5.07901318      0.83984400     -0.48492877
H      -4.16472395     -1.49924650     -1.57528947
H      -4.87800843     -1.38950736      0.02527527
H      -2.80231426     -1.50543880      1.14565818
H      -2.64884436     -2.62863849     -0.19549914
H      -0.42572104     -2.56403370     -0.21794124
H       0.26498647     -1.30989178     -1.17671505
H       0.77820146     -1.93426429      1.57559557
H       0.35471034      0.25904108      2.71308024
H      -1.13611522     -0.56329053      2.29986879
H      -1.15237642      1.84594347      1.61043692
H       0.35429153      2.58394877     -0.23930121
H       1.14839635      2.25462204      1.29656511
H       2.55473391      2.42699511     -1.26032988
H       3.30771358      1.98400877      0.27547259
H       3.32618053      0.37607951     -2.32987961
H       4.69153765      1.21882243     -1.59995570
H       4.73717194     -1.25015758     -1.15116141
H       4.68025035     -0.29464567      0.33016234
H       2.36462862     -1.72797573     -1.03443395
H       3.08140327     -2.12964665      0.51999331
H       2.36371166     -0.01738901      1.50717998
H      -1.31603301      1.13474010     -1.08258928
H      -3.29078720      0.92576293      1.22212416
H      -3.08374428      2.21995110      0.04387294
