20
O=C(O)c1ccnc(C(=O)O)c1C(=O)O
O      -2.41651556      1.68534397      0.72720225
C      -2.31290370      0.63569263      0.12728066
O      -3.35589979      0.08210330     -0.51535970
C      -1.09582068     -0.19237410     -0.00547356
C      -1.21501142     -1.58472084     -0.10584602
C      -0.06164801     -2.34240715     -0.18787694
N       1.17849863     -1.81012881     -0.18120333
C       1.26835014     -0.43956523     -0.09210808
C       2.67794642      0.06622636     -0.14455676
O       3.03391222      1.22820654     -0.14253779
O       3.54038204     -0.98127552     -0.20973713
C       0.16949534      0.39519631      0.00922658
C       0.32684382      1.84085588      0.05675574
O       0.12347447      2.59843862     -0.86930564
O       0.68945259      2.21807018      1.29052406
H      -4.08283632      0.73124332     -0.39329674
H      -2.18633798     -2.07128051     -0.11078299
H      -0.10853576     -3.42671778     -0.26288385
H       3.02763545     -1.82434250     -0.21950980
H       0.79951811      3.19143534      1.22948904
