15
CC(=O)NCC(=O)O
C      -2.46038026     -0.55581638     -0.47552393
C      -1.44049302      0.31967835      0.20021239
O      -1.75984726      1.24858807      0.93470126
N      -0.13883849     -0.00641604     -0.07250838
C       0.96684965      0.74186142      0.50210914
C       2.31556669      0.19935010      0.05860426
O       3.40957250      0.63112713      0.38447138
O       2.22825353     -0.86341841     -0.77606957
H      -3.07391284     -1.04269143      0.28725836
H      -3.09147717      0.06310613     -1.11891990
H      -1.98991878     -1.32885337     -1.08930406
H       0.09599929     -0.78096532     -0.68455537
H       0.87709606      1.78381588      0.18119640
H       0.89473934      0.67466562      1.59160195
H       3.16679075     -1.08403174     -0.96129949
