68
CCC1=C(C)CN(C(=O)NCCc2ccc(S(=O)(=O)NC(=O)N[C@H]3CC[C@H](C)CC3)cc2)C1=O
C      -8.00614561     -2.06374547      0.78703938
C      -6.75891572     -2.30077832     -0.05177004
C      -6.36578725     -1.08587259     -0.81592331
C      -6.51660773     -0.75614594     -2.10780327
C      -7.18216730     -1.53747606     -3.18603749
C      -5.92275046      0.57676876     -2.42808717
N      -5.40694771      0.99498558     -1.15672115
C      -4.75561713      2.20873707     -1.03411566
O      -4.58568672      2.96633482     -1.98768403
N      -4.31800868      2.50377560      0.22869133
C      -3.49809591      3.66005525      0.52327878
C      -2.05664673      3.53385820      0.01657435
C      -1.32040937      2.34227145      0.58613589
C      -0.89851582      2.33299540      1.92340769
C      -0.22877872      1.22495284      2.44563877
C       0.03185009      0.12492639      1.62410690
S       0.85885759     -1.29257613      2.29704130
O       0.60692317     -1.30245029      3.72492869
O       0.55915518     -2.45491364      1.49138031
N       2.46898197     -0.91095747      2.15021893
C       3.12771997     -0.69407186      0.95377347
O       2.59177566     -0.75522922     -0.13922832
N       4.44799367     -0.40003654      1.14432269
C       5.36856543     -0.26372183      0.02179583
C       6.58637285      0.58504559      0.42601337
C       7.74779571     -0.27921356      0.90961354
C       8.23844584     -1.25342965     -0.17810910
C       9.45140294     -0.69254405     -0.92293325
C       7.13157635     -1.62972875     -1.17893595
C       5.76143852     -1.65230065     -0.51367419
C      -0.40009620      0.11189284      0.29735161
C      -1.06911160      1.22170001     -0.21954043
C      -5.62610303      0.02871031     -0.18084707
O      -5.28406590      0.05261341      0.99006802
H      -8.85795896     -1.78244712      0.15808382
H      -7.84833862     -1.26830959      1.52331739
H      -8.27489286     -2.97562993      1.33026001
H      -6.93960599     -3.14077310     -0.73187483
H      -5.93315330     -2.61224072      0.59909575
H      -7.64879658     -2.45207095     -2.80834739
H      -6.45409496     -1.82218167     -3.95312699
H      -7.96737995     -0.93834312     -3.65925957
H      -5.10521882      0.50436329     -3.15337419
H      -6.66992375      1.29565993     -2.78078621
H      -4.32542304      1.73810009      0.90160053
H      -3.52034549      3.79729285      1.60963088
H      -3.96668696      4.53772345      0.06392064
H      -2.04897193      3.48171867     -1.07912023
H      -1.50114522      4.44396908      0.27513123
H      -1.09567418      3.18596776      2.56839988
H       0.07807342      1.22654320      3.48860210
H       2.91498659     -0.74404568      3.04014059
H       4.83763684     -0.58977593      2.05378856
H       4.83346426      0.27894256     -0.76869061
H       6.92271728      1.16657244     -0.44262402
H       6.31483456      1.31353468      1.19980172
H       7.41543984     -0.85789213      1.78154401
H       8.56774733      0.35783409      1.26185660
H       8.56815639     -2.16946712      0.33053154
H      10.28083024     -0.50868858     -0.23185879
H       9.21055775      0.25272263     -1.42115294
H       9.80124970     -1.39943766     -1.68249938
H       7.35205580     -2.61291725     -1.61159217
H       7.10881406     -0.92123247     -2.01667665
H       5.77262823     -2.38914631      0.30011556
H       5.00432554     -1.99854960     -1.22701228
H      -0.20764224     -0.74794683     -0.34099694
H      -1.39666235      1.20571954     -1.25750601
