32
CCOC(=O)C1(C)OC(=O)N(c2cc(Cl)cc(Cl)c2)C1=O
C       5.00277982      1.26164570     -0.55249503
C       3.85125172      1.35996481      0.42868279
O       2.99736588      0.22527931      0.22985074
C       1.91338843      0.17943630      1.05191202
O       1.64996166      1.02843191      1.89635719
C       1.02481002     -1.02450385      0.75764597
C       1.78526866     -2.25814385      0.29171127
O       0.27517664     -1.37800020      1.91718349
C      -1.02301506     -0.99702127      1.74447815
O      -1.82225529     -1.10963499      2.66032375
N      -1.23073819     -0.54310646      0.47366454
C      -2.48233251     -0.10519981     -0.06915958
C      -2.55873642      0.51330593     -1.33013169
C      -3.78133790      0.94506649     -1.85958081
Cl     -3.81971026      1.70170933     -3.40598727
C      -4.96240247      0.77641316     -1.15317986
C      -4.90915661      0.17214669      0.09384099
Cl     -6.36376273     -0.05148608      0.98809685
C      -3.69084332     -0.26145186      0.63246258
C      -0.04857383     -0.62730376     -0.21438707
O       0.16331089     -0.44383217     -1.40627099
H       5.56247767      0.33320533     -0.39806053
H       5.68515950      2.10866650     -0.43959645
H       4.63095823      1.24152728     -1.58228427
H       3.28758619      2.28190958      0.24752035
H       4.23654316      1.35669089      1.45437372
H       1.10902576     -3.11206038      0.16738435
H       2.53613701     -2.55276476      1.03359435
H       2.29490071     -2.09410749     -0.66366158
H      -1.67330370      0.69713210     -1.93197984
H      -5.90891667      1.11205108     -1.56668968
H      -3.73101702     -0.73596546      1.60884321
