54
CCCn1c(=O)c2[nH]c(C34CC5CC(CC3C5)C4)nc2n(CCC)c1=O
C      -6.13323837     -3.14805086      0.06937199
C      -4.87091707     -2.31887081      0.23871697
C      -4.20907733     -2.02422615     -1.10945448
N      -2.99763371     -1.22767306     -0.94838435
C      -1.80035652     -1.92179478     -0.74602336
O      -1.69546681     -3.14363807     -0.70505381
C      -0.69007465     -1.05967162     -0.57928583
N       0.62801191     -1.33936543     -0.37915323
C       1.28841875     -0.13150507     -0.27247017
C       2.75747328     -0.04709175     -0.04461700
C       3.58564916     -0.69152080     -1.17645633
C       4.92373534      0.03178568     -1.01031156
C       5.53116645     -0.29882533      0.38339537
C       4.52994562      0.01484822      1.53222830
C       4.04626910      1.46084364      1.41492828
C       3.33155908      1.42266522      0.05418768
C       4.42440973      1.47714234     -1.02590889
C       3.20584635     -0.70789874      1.27629142
N       0.43834864      0.87452820     -0.39793466
C      -0.77791163      0.29403977     -0.58517980
N      -1.98057331      0.93791229     -0.75251308
C      -2.05544771      2.39553077     -0.71276981
C      -2.01435987      2.96786223      0.70747062
C      -3.22760555      2.59059565      1.54427962
C      -3.14244852      0.17673747     -0.92122595
O      -4.25169572      0.70699648     -1.03545910
H      -6.86798014     -2.62196551     -0.54843366
H      -6.58947336     -3.34742950      1.04405034
H      -5.91035705     -4.10938872     -0.40440418
H      -5.12027334     -1.38080261      0.74854853
H      -4.17107279     -2.85463595      0.89090036
H      -3.95987144     -2.96569089     -1.61344021
H      -4.91139482     -1.49282386     -1.76244417
H       1.03978981     -2.26172758     -0.31756027
H       3.68221199     -1.77858327     -1.07783461
H       3.15157221     -0.48743967     -2.16408210
H       5.62515068     -0.18380562     -1.82052983
H       6.44731222      0.28578149      0.52919239
H       5.80654302     -1.35957079      0.41899998
H       4.95382197     -0.21268983      2.51380048
H       4.86458754      2.18685304      1.45601365
H       3.33726172      1.70456480      2.21544183
H       2.60886680      2.23578015     -0.05225417
H       3.99040195      1.73276382     -2.00016746
H       5.21537994      2.20188701     -0.80796589
H       3.32999609     -1.79373454      1.19726679
H       2.49292463     -0.51594254      2.08892362
H      -2.96737198      2.73358627     -1.21843394
H      -1.21507308      2.79552778     -1.29369333
H      -1.10613541      2.63986296      1.22577560
H      -1.96442534      4.06103941      0.63959913
H      -4.15581325      2.89685805      1.05170817
H      -3.18160396      3.08827143      2.51823492
H      -3.26900126      1.51209921      1.72411917
