9
C=C(F)C(F)(F)F
C      -1.38874287     -0.30792601      0.15724555
C      -0.30359447      0.45157622     -0.05472438
F      -0.51738259      1.77351686     -0.26564972
C       1.11230324     -0.04540051     -0.07579967
F       1.87219841      0.55862812      0.87330783
F       1.20182208     -1.38382079      0.14728773
F       1.71103062      0.19040002     -1.27121583
H      -1.31032699     -1.37582569      0.33472327
H      -2.37730743      0.13885178      0.15482522
