73
CC(C)(C)CC(=O)OCC(=O)C1(O)CCC2C3CCC4=CC(=O)CCC4(C)C3C(O)CC21C
C       5.17920073     -2.02921160     -0.52392820
C       6.37315603     -1.29623201      0.11185845
C       7.11908672     -0.49418683     -0.96892056
C       7.34453022     -2.34811543      0.68806961
C       5.91511557     -0.38319819      1.27119570
C       4.80727957      0.58974965      0.92175581
O       4.85949831      1.43618949      0.03909537
O       3.73986452      0.41207373      1.75393427
C       2.61964418      1.24189516      1.43370630
C       1.92281484      0.77965179      0.14983014
O       2.02106492     -0.39027173     -0.23812846
C       1.04927888      1.82112789     -0.60130643
O       1.57381599      3.12772595     -0.38578742
C       1.05472369      1.52894111     -2.12751307
C      -0.27297947      0.81932703     -2.45519658
C      -0.91434343      0.54147397     -1.09804480
C      -2.42765632      0.29780934     -1.02562805
C      -2.92876519     -0.77864511     -2.00961356
C      -3.48810211     -2.02362796     -1.33469159
C      -4.50579189     -1.72517658     -0.25706740
C      -5.45304991     -2.64107206      0.01538004
C      -6.39072405     -2.48271032      1.14809472
O      -7.33088625     -3.26802001      1.26160872
C      -6.17667941     -1.34918623      2.11915976
C      -4.78268827     -0.73237732      2.01154355
C      -4.33533295     -0.43294388      0.55740926
C      -5.25947238      0.66709016     -0.02303895
C      -2.81757703     -0.00904135      0.46459759
C      -2.33655768      1.13269910      1.40859096
O      -2.48435482      0.73982439      2.77203308
C      -0.83570125      1.45627686      1.21688553
C      -0.46908921      1.75146136     -0.24257646
C      -1.15135876      3.09371366     -0.64684986
H       4.49711949     -1.33346142     -1.02283170
H       4.60816930     -2.58322026      0.23012006
H       5.51453582     -2.74827086     -1.27921382
H       7.94712448      0.07902601     -0.53509495
H       6.45856965      0.20822080     -1.48919046
H       7.54147445     -1.16084902     -1.72972191
H       7.70064343     -3.02867043     -0.09107926
H       6.85881557     -2.95714789      1.46057960
H       8.22442573     -1.87258247      1.13566206
H       6.75239185      0.20498067      1.66802627
H       5.56567131     -1.00981592      2.10399638
H       2.94708944      2.28507577      1.36991366
H       1.90558845      1.16583050      2.25920944
H       2.42280706      3.19161081     -0.86657865
H       1.13367744      2.45170522     -2.71586988
H       1.90451639      0.90300385     -2.42295929
H      -0.90651994      1.46614401     -3.07273325
H      -0.09237572     -0.10086799     -3.02045055
H      -0.44147729     -0.37283644     -0.70983682
H      -2.91884824      1.22637796     -1.33591337
H      -2.14372076     -1.08234727     -2.70978912
H      -3.71853961     -0.33810333     -2.63294791
H      -2.65704162     -2.57878868     -0.88097244
H      -3.91974564     -2.67645610     -2.10358375
H      -5.56072869     -3.56085297     -0.54828765
H      -6.95344645     -0.59806572      1.94074059
H      -6.31423044     -1.73868391      3.13471438
H      -4.06267332     -1.41670743      2.47917695
H      -4.79493238      0.18421173      2.60962062
H      -6.31498841      0.37917682      0.01619375
H      -5.05385591      0.88510337     -1.07503689
H      -5.15844614      1.60197820      0.53744130
H      -2.24027955     -0.89311583      0.78370441
H      -2.94896354      2.02777133      1.26021692
H      -2.20595735      1.48582129      3.33310427
H      -0.55103880      2.29444378      1.86541651
H      -0.26608939      0.59610288      1.59095220
H      -2.23974912      3.06937227     -0.55104662
H      -0.80359361      3.91139874     -0.00394138
H      -0.93334169      3.38047393     -1.68081360
