12
c1ccccc1
C      -0.48774884     -1.30676668      0.00113421
C       0.88767510     -1.07574901     -0.01833761
C       1.37542392      0.23101765     -0.01947144
C       0.48774882      1.30676667     -0.00113388
C      -0.88767513      1.07574902      0.01833723
C      -1.37542397     -0.23101766      0.01947149
H      -0.86776128     -2.32488842      0.00201810
H       1.57927626     -1.91388134     -0.03262499
H       2.44703756      0.41100701     -0.03464187
H       0.86776138      2.32488835     -0.00201706
H      -1.57927623      1.91388143      0.03262378
H      -2.44703761     -0.41100702      0.03464204
