33
Oc1c(-c2ccccc2)cccc1-c1ccccc1
O       0.00123688      1.03150704     -0.81283390
C      -0.01986951     -0.07413802      0.00750701
C       1.18516735     -0.70282868      0.39208911
C       2.50575378     -0.20103432     -0.01336208
C       3.03437717      0.96767616      0.55713440
C       4.28295523      1.45293461      0.16292679
C       5.01969805      0.77500761     -0.80595767
C       4.51041062     -0.38800358     -1.38001807
C       3.26169173     -0.87345727     -0.98561971
C       1.10838391     -1.84746499      1.20162026
C      -0.12273383     -2.34690395      1.62125156
C      -1.30087881     -1.70735708      1.23685920
C      -1.27768528     -0.56003143      0.42377660
C      -2.55020259      0.08224562      0.04076118
C      -3.54273744     -0.63619512     -0.64793797
C      -4.75718503     -0.03742883     -0.99452389
C      -5.00046875      1.29147796     -0.65664620
C      -4.03024819      2.02185957      0.02489128
C      -2.81663180      1.42115383      0.37036704
H       0.90368172      1.15656115     -1.15061879
H       2.47104887      1.50538274      1.31818424
H       4.68055877      2.35831456      0.61455903
H       5.99237713      1.15181863     -1.11209274
H       5.08486659     -0.91844669     -2.13525156
H       2.87528560     -1.78086574     -1.44621628
H       2.01937388     -2.35201772      1.51892450
H      -0.16544938     -3.22993127      2.25366100
H      -2.25224625     -2.10493394      1.58641545
H      -3.36745109     -1.67220764     -0.92976660
H      -5.50928360     -0.60894914     -1.53151553
H      -5.94299818      1.75903138     -0.92792485
H      -4.21284806      3.06044389      0.28662248
H      -2.06794948      2.00678071      0.89989604
