31
COc1ccc(NS(=O)(=O)c2ccc(N)cc2)nn1
C       3.49690949     -0.84345975     -2.72358389
O       3.31749743      0.49070544     -2.25777442
C       2.69741991      0.55322630     -1.02751631
C       2.48921489      1.81192520     -0.49509558
C       1.86281808      1.90928595      0.74189930
C       1.48365027      0.73825338      1.36692588
N       0.81083742      0.70671538      2.60494880
S      -0.76778263      1.29163736      2.61586433
O      -0.76038442      2.67006965      2.17296381
O      -1.33174567      0.92277170      3.89704385
C      -1.58423112      0.31464845      1.37474780
C      -2.04428087     -0.96276239      1.70042156
C      -2.69874634     -1.72444513      0.72883497
C      -2.86909796     -1.23534097     -0.57051006
N      -3.62821227     -1.95632120     -1.49855131
C      -2.47014020      0.07455950     -0.85566790
C      -1.81508213      0.84865880      0.10558068
N       1.69994796     -0.47848823      0.83143144
N       2.31505940     -0.57327882     -0.38462157
H       4.14271100     -1.41559522     -2.04845087
H       2.53397772     -1.34584846     -2.86711063
H       3.99440101     -0.79252972     -3.69692356
H       2.80787892      2.69847785     -1.03147195
H       1.68281972      2.87654738      1.19792147
H       0.86405643     -0.20883207      3.04756098
H      -1.91706344     -1.36592512      2.70214130
H      -3.07994310     -2.70702311      0.99602347
H      -3.60841260     -2.96135120     -1.35573216
H      -3.44839317     -1.70245627     -2.46495089
H      -2.67052219      0.50526183     -1.83360542
H      -1.50516154      1.86091348     -0.14246524
