31
C=CC(C)(CCC=C(C)C)OC=O
C      -3.00584890      2.06748379      1.06810653
C      -2.57777852      1.41656220     -0.02387147
C      -1.98721952      0.00867891     -0.08876270
C      -2.92686934     -0.82486355     -0.97697722
C      -0.56714876      0.08420787     -0.70226151
C       0.45419817      0.81241159      0.18082822
C       1.80916724      0.85130142     -0.47381775
C       2.84586140      0.01968603     -0.25243552
C       4.15515615      0.21309005     -0.97119514
C       2.81823396     -1.16104315      0.67915513
O      -1.97108600     -0.51793352      1.26151311
C      -1.52739232     -1.77100687      1.50715820
O      -1.09811177     -2.58179269      0.70460099
H      -3.40970294      3.07245159      0.99153026
H      -2.96673831      1.62289219      2.05738171
H      -2.65310310      1.93627811     -0.97900431
H      -2.53708002     -1.83232181     -1.15211043
H      -3.07446686     -0.36138582     -1.95933877
H      -3.90740335     -0.94835988     -0.50180783
H      -0.61573594      0.57416317     -1.68505062
H      -0.19383365     -0.92901868     -0.89574930
H       0.14041982      1.84877846      0.35291464
H       0.51218927      0.35217535      1.17185469
H       1.93584055      1.66170621     -1.19149682
H       4.38844608     -0.66724300     -1.57899928
H       4.96453988      0.36262619     -0.24909663
H       4.13950566      1.08229227     -1.63714378
H       1.82935816     -1.35851179      1.09940394
H       3.12363073     -2.06771922      0.14580588
H       3.51172510     -1.00024809      1.51088439
H      -1.60875289     -1.96533732      2.58798139
