23
S=P(N1CC1)(N1CC1)N1CC1
S      -0.68074145      0.42949957     -2.38429111
P       0.00916293      0.18627563     -0.55254944
N       1.66087213     -0.04219861     -0.52915391
C       2.25092475     -1.35805054     -0.71855533
C       2.34219993     -0.64287532      0.60803785
N      -0.64156037     -1.06339678      0.34809979
C      -1.25956713     -2.23175424     -0.26100602
C      -2.08924468     -1.20159185      0.46078543
N      -0.15812882      1.46318038      0.51166954
C      -1.25573604      2.41230483      0.41394377
C       0.16014355      2.82144848      0.09091374
H       1.59188998     -2.21140454     -0.80193521
H       3.13421591     -1.39154891     -1.34361490
H       3.28609552     -0.18977849      0.88255993
H       1.74213030     -0.99782751      1.43577902
H      -1.32650538     -2.28711695     -1.33960161
H      -1.07874589     -3.17663575      0.23618392
H      -2.46256498     -1.44193264      1.44794733
H      -2.71459392     -0.54049151     -0.12568798
H      -1.67874941      2.74336849      1.35399575
H      -1.96200770      2.31288725     -0.39964348
H       0.69877287      3.42252777      0.81211981
H       0.43173791      2.98511123     -0.94430637
