74
CC(C)CCCC(C)C1CCC2C3CC=C4CC(O)CCC4(C)C3CCC12C
C       7.93335377      1.51332400      0.21799808
C       6.43939490      1.18077255      0.15272252
C       5.69810160      2.27734149     -0.61464387
C       6.24580629     -0.21282518     -0.47741428
C       4.79335182     -0.69739832     -0.59633205
C       4.09757847     -0.85464775      0.75963268
C       2.64694915     -1.40195941      0.70420102
C       2.63416627     -2.84573292      0.18988291
C       1.68832141     -0.41269042     -0.02345321
C       1.30890775     -0.76479565     -1.46620385
C       0.05107269      0.04400446     -1.77248530
C      -0.41935745      0.67402297     -0.44484569
C      -1.96215677      0.75007182     -0.36566911
C      -2.42018000      1.84189319      0.61941748
C      -3.90381882      1.88157693      0.78567634
C      -4.71818113      0.85922279      0.47650248
C      -6.21898069      1.05991122      0.44110923
C      -6.75401740      0.84604590     -0.98548237
O      -6.35356258      1.91452123     -1.84941248
C      -6.26868331     -0.46758350     -1.60364773
C      -4.74783937     -0.66018219     -1.46695470
C      -4.21078055     -0.50099534     -0.00989251
C      -4.80349567     -1.63354716      0.86461427
C      -2.62687089     -0.61052144     -0.03864796
C      -1.96770041     -1.20972158      1.22309185
C      -0.46407754     -1.42374907      1.01514336
C       0.30868186     -0.13824319      0.66318282
C       0.53714577      0.69788491      1.93896399
H       8.47330628      0.76419590      0.80810618
H       8.09478957      2.48905021      0.69014272
H       8.37885484      1.54267325     -0.78264791
H       6.06358625      1.16927209      1.18214943
H       5.91368698      3.26441175     -0.18822364
H       5.99490433      2.29365326     -1.66900538
H       4.61376789      2.13600598     -0.56626371
H       6.81419106     -0.95027259      0.10485439
H       6.68556314     -0.21523181     -1.48361575
H       4.23148023     -0.01585177     -1.24284941
H       4.81251704     -1.66407296     -1.11290203
H       4.07375642      0.11178503      1.27768545
H       4.69983038     -1.52074978      1.39114011
H       2.33507341     -1.46150930      1.75425050
H       2.95124889     -2.91984199     -0.85296826
H       3.31411791     -3.46748179      0.78258537
H       1.63960088     -3.29038976      0.27715016
H       2.19729640      0.56272997     -0.06768818
H       1.07375682     -1.82689278     -1.59289925
H       2.11518982     -0.52488830     -2.16801619
H      -0.70436969     -0.60567982     -2.22473093
H       0.26614626      0.83109245     -2.50379181
H      -0.02729235      1.70219807     -0.44168138
H      -2.31629501      1.06560559     -1.35830339
H      -2.08730426      2.81748219      0.23975668
H      -1.98159545      1.72914473      1.61211277
H      -4.31704021      2.83222093      1.11414486
H      -6.70430476      0.36751240      1.13664396
H      -6.48045607      2.07061192      0.77836551
H      -7.84926333      0.85561431     -0.96552341
H      -6.37168955      2.73932740     -1.33648448
H      -6.52225803     -0.48977548     -2.67088077
H      -6.79264522     -1.30944709     -1.13884305
H      -4.25230046      0.06460830     -2.12740118
H      -4.48847442     -1.65477138     -1.85344538
H      -5.89512702     -1.68434298      0.82672579
H      -4.43905931     -2.61280527      0.53507543
H      -4.54212131     -1.50148148      1.92070522
H      -2.38232467     -1.30896595     -0.85201155
H      -2.15650595     -0.58634132      2.10402319
H      -2.38938934     -2.19709739      1.44235011
H      -0.04415606     -1.88184806      1.91877570
H      -0.35314335     -2.16816359      0.21853797
H      -0.37536007      0.83129421      2.52224724
H       1.25503815      0.22037196      2.61357914
H       0.93164378      1.69104042      1.69770654
