27
Cc1ccccc1OCC(O)CO
C      -2.10248733     -1.28991457     -1.63048303
C      -2.19209020     -0.23777528     -0.55979732
C      -3.44786732      0.25572148     -0.17433770
C      -3.55181443      1.23115851      0.81546304
C      -2.40282788      1.72098560      1.42853416
C      -1.14640730      1.23833037      1.05356175
C      -1.03128436      0.26110252      0.05990288
O       0.15117857     -0.27746986     -0.37650088
C       1.36248779      0.25027824      0.18086747
C       2.52435775     -0.48950340     -0.49268036
O       2.46983478     -1.88169826     -0.13147236
C       3.88163999      0.05771543     -0.05445640
O       4.05635157     -0.12918127      1.34930905
H      -3.09338151     -1.57177838     -2.00185141
H      -1.52302658     -0.91641256     -2.48099744
H      -1.62761498     -2.19370513     -1.23504849
H      -4.35421580     -0.11906767     -0.64455064
H      -4.52862376      1.60706953      1.10844510
H      -2.48278323      2.48010566      2.20255775
H      -0.27881010      1.64562211      1.56204043
H       1.43576750      1.32391295     -0.02720319
H       1.37323950      0.05842125      1.26028094
H       2.42897194     -0.43388998     -1.58274652
H       1.54632691     -2.15806881     -0.29370493
H       4.69272793     -0.47923306     -0.55696320
H       3.97544141      1.12427049     -0.27871707
H       3.86490912     -1.07699589      1.50054834
