35
Cc1ccc(C(=O)Nc2ccc(S(=O)(=O)[O-])cc2)cc1N.[Na+]
C      -5.64977880     -1.34636412      0.19417419
C      -4.26935545     -0.74914321      0.16561496
C      -3.30238835     -1.31014206     -0.68676793
C      -2.00102763     -0.80846698     -0.71826310
C      -1.64803368      0.24787844      0.12445718
C      -0.26642338      0.80329193      0.14384774
O      -0.13657048      2.01314988      0.28235620
N       0.73206074     -0.14458784      0.03114854
C       2.12408382      0.07327045     -0.04438963
C       2.94130395     -1.06799170     -0.08534683
C       4.32925628     -0.94752691     -0.17662779
C       4.90521845      0.32218607     -0.22279118
S       6.70536909      0.46068264     -0.37971778
O       7.02581928     -0.62148304     -1.30790154
O       6.89534394      1.80731352     -0.91185093
O       7.14030307      0.25820524      0.99879895
C       4.10720239      1.46664601     -0.19130334
C       2.71586500      1.33890625     -0.09932122
C      -2.61240204      0.82524998      0.95840590
C      -3.93642931      0.36926361      0.95311953
N      -4.83863809      0.90265823      1.88823864
Na      0.00000000      0.00000000      0.00000000
H      -6.37894062     -0.63090882     -0.19919813
H      -5.92500717     -1.62472097      1.21662865
H      -5.70906470     -2.25340703     -0.41683520
H      -3.55927818     -2.14763900     -1.33222359
H      -1.28162488     -1.23954133     -1.40937483
H       0.45193884     -1.11518719      0.06351056
H       2.51559621     -2.06600306     -0.04960013
H       4.96798249     -1.82645097     -0.21393591
H       4.56877122      2.44972865     -0.23977048
H       2.12474965      2.24828192     -0.08049736
H      -2.31947194      1.64340561      1.61355514
H      -5.81131674      0.81978845      1.61447302
H      -4.60511297      1.84965738      2.17444077
