46
CC(C)CC(CC(C)C)(CC(C)C)C(=O)NO
C       2.90942266     -2.11551270      0.88710868
C       2.27297967     -0.91239528      0.17706778
C       3.38265970      0.11123907     -0.09725697
C       1.13788521     -0.31741111      1.04771262
C      -0.14102128      0.22673156      0.31101532
C      -0.86767805     -0.88367741     -0.52376915
C      -0.95844033     -2.32695425      0.03021804
C      -1.77087815     -2.46355562      1.31564674
C      -1.56888704     -3.24041130     -1.04228439
C       0.26594604      1.38794766     -0.66190762
C      -0.82320959      2.05373626     -1.54276854
C      -0.13687035      2.89738827     -2.62811836
C      -1.78891749      2.95044538     -0.76929310
C      -1.09295470      0.79186555      1.39429243
O      -2.27367619      0.46319338      1.51651350
N      -0.55447491      1.73723807      2.24163930
O      -1.48432616      2.34086749      3.12447655
H       3.33713173     -1.82536571      1.85314691
H       2.17342172     -2.90447241      1.06892894
H       3.71079487     -2.54721544      0.27778292
H       1.87532633     -1.26323318     -0.78084218
H       4.16092010     -0.32766002     -0.73135870
H       3.01166736      1.00185136     -0.60792589
H       3.85820780      0.43828203      0.83425477
H       0.80873207     -1.06797493      1.77741707
H       1.57420544      0.47941529      1.66458899
H      -1.88724552     -0.54954558     -0.75982834
H      -0.35642596     -0.95575914     -1.49420233
H       0.04897617     -2.70464526      0.22296267
H      -1.31527139     -1.91539352      2.14392952
H      -1.82833012     -3.51342594      1.62450655
H      -2.79605058     -2.10437425      1.17877825
H      -0.97231835     -3.21687054     -1.96047974
H      -2.59008707     -2.93275319     -1.29206876
H      -1.60243484     -4.27928256     -0.69680372
H       0.99736212      0.97093541     -1.36462541
H       0.79771679      2.17253971     -0.10864048
H      -1.40467416      1.28309912     -2.06037950
H       0.46365761      3.69994843     -2.18622924
H       0.52313336      2.27855224     -3.24540645
H      -0.87667273      3.35392115     -3.29449064
H      -2.48408682      2.36554274     -0.16470845
H      -2.40353212      3.54470053     -1.45493662
H      -1.25284616      3.64553730     -0.11487650
H       0.23620037      2.31443132      1.97904299
H      -2.31503706      1.85848004      2.91217057
