21
CCN(CC)C(=O)CCl
C       2.56678608     -0.05463887      0.14828728
C       1.38509652     -0.35683106     -0.76030987
N       0.12121603      0.09701178     -0.17798520
C      -0.59525667     -0.85474612      0.67424449
C      -1.52762697     -1.74222441     -0.13560228
C      -0.27856832      1.41016223     -0.42353178
O       0.40229731      2.17638127     -1.11259094
C      -1.58837426      1.89920028      0.16679852
Cl     -1.29892524      2.53571093      1.79763329
H       2.45767770     -0.55279722      1.11695683
H       3.49754586     -0.40111295     -0.31116597
H       2.65681782      1.02038328      0.33518662
H       1.53914953      0.13570144     -1.72703404
H       1.32086871     -1.43259037     -0.95691250
H       0.13898229     -1.46797843      1.20858461
H      -1.17085656     -0.32417609      1.43576850
H      -0.97161420     -2.33170677     -0.87166391
H      -2.05957936     -2.43525826      0.52335891
H      -2.26903275     -1.14812505     -0.67907415
H      -1.97829775      2.71083173     -0.45513817
H      -2.34830578      1.11680266      0.20418978
