28
CCCCOC(=O)c1ccc(O)c(I)c1
C      -5.10279438     -0.35055982     -0.63814910
C      -4.07775464      0.38108297      0.21344121
C      -2.65605391     -0.06303016     -0.11817122
C      -1.62440947      0.66821971      0.73361101
O      -0.32403391      0.19322497      0.35897734
C       0.69619918      0.76500490      1.04436342
O       0.58666511      1.61391103      1.91467405
C       2.00473734      0.21675098      0.59451201
C       2.10561180     -0.75888394     -0.40798384
C       3.35850196     -1.24083853     -0.79413321
C       4.50877655     -0.75150634     -0.18245432
O       5.69854419     -1.26856289     -0.61072487
C       4.42009258      0.21994862      0.81681203
I       6.12758662      0.97177958      1.75119409
C       3.16951299      0.70510985      1.20649702
H      -5.05000168     -1.43149510     -0.47338450
H      -6.11389212     -0.01723975     -0.38419297
H      -4.93852611     -0.15656325     -1.70291987
H      -4.17861077      1.46027206      0.04961754
H      -4.28946743      0.19241696      1.27232831
H      -2.55050570     -1.14466035      0.03333714
H      -2.44053780      0.11303235     -1.17957298
H      -1.68457959      1.74817920      0.55470259
H      -1.79713961      0.46084145      1.79620204
H       1.21878030     -1.15392371     -0.89800514
H       3.43713340     -1.99711930     -1.57119420
H       6.40756381     -0.83781209     -0.09979730
H       3.08860129      1.46242059      1.98442013
