21
Cc1ccc2[nH]c(=O)c(=O)[nH]c2c1
C      -3.35245616     -0.17056345      0.26119765
C      -1.88981142      0.13463606      0.11678703
C      -1.46855535      1.42026725     -0.25253044
C      -0.11059645      1.70438693     -0.41936753
C       0.83127730      0.69692596     -0.22703527
N       2.19002954      0.97510996     -0.39285299
C       3.17975620      0.03180543     -0.22423290
O       4.36247024      0.30707152     -0.37645258
C       2.72466222     -1.39628086      0.16718593
O       3.53155082     -2.30044734      0.33802154
N       1.36985598     -1.59874680      0.31324131
C       0.42044720     -0.59087317      0.12721993
C      -0.93461991     -0.87614667      0.29423442
H      -3.51534976     -0.95727674      1.00532335
H      -3.76198283     -0.50011852     -0.69856681
H      -3.90457761      0.71332809      0.59746928
H      -2.19967010      2.21096781     -0.41194688
H       0.19231725      2.70908097     -0.70050002
H       2.50225440      1.90160133     -0.64902706
H       1.08865278     -2.53515924      0.56920442
H      -1.25565435     -1.87956852      0.56262761
