17
OCc1cccc(O)c1
O       2.80605298     -0.68864928      0.91335337
C       2.21469444     -0.46561435     -0.35962357
C       0.77685291     -0.05174947     -0.20676226
C       0.45442932      1.26417836      0.15564417
C      -0.87821886      1.64674715      0.32386774
C      -1.90178954      0.71750265      0.13934758
C      -1.58081112     -0.59033185     -0.20926560
O      -2.54794809     -1.53384832     -0.39323836
C      -0.25645775     -0.98145668     -0.37939384
H       2.08446101     -0.80045298      1.55614280
H       2.29845559     -1.38716177     -0.94515059
H       2.78641394      0.30774768     -0.88320624
H       1.24494310      1.99640154      0.31073863
H      -1.11634630      2.67052681      0.60151423
H      -2.93273451      1.02854240      0.27400075
H      -3.41509160     -1.12001792     -0.25149524
H      -0.03690551     -2.01236398     -0.64647358
