30
CCn1cc(C(=O)O)c(=O)c2cc3c(cc21)OCO3
C      -1.93415854     -2.70394989     -0.48046945
C      -1.66271079     -1.93386758      0.80398801
N      -1.24359129     -0.54972481      0.51349609
C      -2.18150205      0.47335122      0.45549667
C      -1.94372141      1.76527838      0.19016781
C      -3.07105779      2.72060966      0.17538270
O      -4.23062235      2.39531398      0.38770237
O      -2.72170429      3.99737822     -0.09382384
C      -0.54365471      2.14578201     -0.07312109
O      -0.26271916      3.32029121     -0.30767575
C       0.49221459      1.08532751     -0.05299698
C       1.82002181      1.45060700     -0.32963804
C       2.76493920      0.45462881     -0.31513908
C       2.42923406     -0.84728529     -0.04263692
C       1.12974540     -1.23178655      0.23373686
C       0.11399029     -0.25895457      0.23756336
O       3.50621113     -1.67816484     -0.08081902
C       4.55938754     -0.74647518     -0.40752860
O       4.09232202      0.61027362     -0.55835066
H      -1.03907337     -2.77764654     -1.10552552
H      -2.26995652     -3.71942125     -0.24826949
H      -2.71472877     -2.21544188     -1.07326938
H      -0.93364319     -2.45815730      1.43138689
H      -2.58398479     -1.92131446      1.40143703
H      -3.19915414      0.13787184      0.65520375
H      -1.75261864      4.12427322     -0.24426972
H       2.09777314      2.47616573     -0.54923308
H       0.94269696     -2.27936299      0.43345530
H       5.31105517     -0.77281268      0.38976095
H       5.02901049     -1.06278659     -1.34601118
