21
NC(=O)NCc1ccccc1
N       3.78716307      0.29072084      0.67661350
C       2.82192327     -0.66243955      0.70264125
O       3.04583445     -1.79920582      1.08695709
N       1.62331517     -0.18929309      0.26419357
C       0.51484522     -1.10208467      0.11081739
C      -0.73203057     -0.36210208     -0.29222784
C      -1.47939241      0.33933405      0.66482778
C      -2.62366398      1.04565974      0.29141869
C      -3.02825474      1.06315133     -1.04205329
C      -2.28825013      0.37712436     -2.00352919
C      -1.14327300     -0.32987897     -1.63209661
H       3.48999547      1.21792550      0.94510820
H       4.64425029     -0.01371918      1.12222969
H       1.69147441      0.54931901     -0.42035962
H       0.78638044     -1.85187456     -0.64208255
H       0.35599969     -1.63997023      1.05326891
H      -1.16881984      0.33752273      1.70776917
H      -3.19872638      1.58281818      1.04116801
H      -3.92008891      1.61244911     -1.33219314
H      -2.60342872      0.39257878     -3.04372642
H      -0.57525279     -0.85803548     -2.39498044
