39
CCCCN(CC)c1c([N+](=O)[O-])cc(C(F)(F)F)cc1[N+](=O)[O-]
C      -4.34300678      1.22140751      2.54719365
C      -2.96107236      0.58789230      2.56449019
C      -2.45470566      0.30962490      1.14935505
C      -1.06211296     -0.32849340      1.17395424
N      -0.57299977     -0.53601521     -0.20866361
C      -1.04494347     -1.77692342     -0.86170011
C      -0.91226636     -1.71019011     -2.37631269
C       0.77234808     -0.17478644     -0.39163894
C       1.08510057      1.03903585     -1.03903896
N       0.01661728      1.91301355     -1.47955640
O      -0.41088716      2.73197368     -0.65451957
O      -0.32090237      1.82909839     -2.66810558
C       2.39776252      1.47820076     -1.29987068
C       3.48675574      0.69975614     -0.89465373
C       4.90512886      1.13382936     -1.18503507
F       5.03678230      2.48399519     -1.27755040
F       5.36448982      0.62397201     -2.35764359
F       5.78213433      0.73365637     -0.22563123
C       3.22651329     -0.50987053     -0.23740454
C       1.89761409     -0.91914970      0.01022695
N       1.75492310     -2.16112596      0.73966488
O       1.43679021     -2.08371143      1.93294979
O       2.01373394     -3.20230219      0.12181728
H      -5.07058718      0.56268046      2.06238515
H      -4.68539724      1.41188057      3.56913950
H      -4.33067715      2.17497409      2.00973543
H      -2.26583629      1.25735760      3.08424398
H      -3.00076042     -0.34674723      3.13591604
H      -3.16342521     -0.34741285      0.63203534
H      -2.42384731      1.24537776      0.57903269
H      -0.38671941      0.33261405      1.73345790
H      -1.09991569     -1.28461173      1.70979170
H      -0.53077052     -2.66037087     -0.47360604
H      -2.10713953     -1.92101719     -0.63260159
H      -1.44566390     -0.84314408     -2.77880129
H      -1.33797602     -2.61046559     -2.83088093
H       0.13415249     -1.64226811     -2.68971202
H       2.56251509      2.42476946     -1.81672109
H       4.05825106     -1.13650394      0.09061370
