29
C=O.CC(C)(C)c1ccc(O)cc1
C      -0.01216747      0.00198826      0.00029848
O       1.19608039     -0.19544768     -0.02934485
C      -1.69678965     -1.48359286     -0.67925372
C      -1.33242700     -0.06569734     -0.18861440
C      -1.75504936      0.96580114     -1.25693806
C      -2.17888187      0.21202163      1.07428776
C       0.18565873      0.02601273      0.04713435
C       0.74127527      0.33493997      1.30094089
C       2.12644748      0.41064711      1.48223641
C       2.97823661      0.17881622      0.41337447
O       4.32011886      0.26321193      0.63588057
C       2.46764968     -0.12874523     -0.83918192
C       1.08227564     -0.20369968     -1.01726737
H      -0.74216011     -0.82296393      0.01780530
H      -0.44175281      1.01642335      0.01124107
H      -1.38169715     -2.24453440      0.04460496
H      -2.77891125     -1.58662996     -0.82179418
H      -1.22355767     -1.72526543     -1.63725007
H      -2.83913860      0.94547939     -1.41898470
H      -1.48225369      1.98324544     -0.95250936
H      -1.28303468      0.77522912     -2.22698755
H      -1.96065309     -0.50696855      1.87253532
H      -3.25089368      0.13507493      0.85615724
H      -2.00175403      1.22083907      1.46503441
H       0.11627307      0.52476764      2.16884472
H       2.53550453      0.65087352      2.45953516
H       4.78218812      0.07761323     -0.19764644
H       3.12130575     -0.31280063     -1.68548890
H       0.70810797     -0.44663900     -2.00958069
