46
Cc1cc(C2(c3ccc(O)c(C)c3)CCCCC2)ccc1O
C       2.86241940     -3.20268963     -1.46720394
C       2.65935165     -2.20338161     -0.36594793
C       1.68288604     -1.20174655     -0.48613726
C       1.45826431     -0.24662376      0.53079911
C       0.35481026      0.83848337      0.33600490
C      -1.01402786      0.11034417      0.21143785
C      -1.56173650     -0.54680725      1.33206418
C      -2.77834513     -1.22999486      1.25895752
C      -3.46706146     -1.28142634      0.05342811
O      -4.65588147     -1.94831939     -0.03551745
C      -2.95345981     -0.66715041     -1.08800112
C      -3.68355470     -0.74691256     -2.39785101
C      -1.72450314      0.01081512     -0.99969564
C       0.29942217      1.85414615      1.53116865
C      -0.62516377      3.04710966      1.28384015
C      -0.17308136      3.83557337      0.06453345
C      -0.07908052      2.94452859     -1.16398342
C       0.76854956      1.68958828     -0.91719100
C       2.24335509     -0.34480714      1.69184120
C       3.21929424     -1.33828933      1.82504709
C       3.42153395     -2.25608392      0.79963688
O       4.37099535     -3.23065674      0.92208000
H       2.63082130     -4.21130037     -1.11008219
H       2.21329417     -2.99436397     -2.32420412
H       3.89759726     -3.17206238     -1.82238773
H       1.07605949     -1.17558915     -1.38982442
H      -1.03108217     -0.55369952      2.28150920
H      -3.16102834     -1.72049246      2.14816821
H      -4.85981947     -2.33299960      0.83206062
H      -3.72177491     -1.78405552     -2.74604864
H      -4.70292411     -0.36211512     -2.29011568
H      -3.18819546     -0.15082288     -3.17146448
H      -1.32926653      0.45104877     -1.91040987
H       0.00069910      1.37165399      2.46864667
H       1.30482695      2.26064314      1.71205453
H      -0.61362010      3.70309289      2.16204290
H      -1.66033802      2.71155932      1.15413367
H      -0.87019029      4.65924665     -0.12608840
H       0.80643853      4.28801550      0.26282745
H      -1.08972909      2.67132224     -1.48322344
H       0.35820666      3.51547933     -1.99170604
H       1.80956399      2.02096565     -0.78532506
H       0.77510565      1.08880786     -1.83448063
H       2.11700789      0.34153418      2.52374840
H       3.80659330     -1.37879888      2.73714441
H       4.80676793     -3.13276888      1.78371430
