90
CCCCCCCC/C=C/CCCCCCCC(=O)OCCCCCCCCCCCC
C     -12.77608962     -0.43412330     -2.99140249
C     -11.32359558     -0.59595826     -3.41231670
C     -10.43675779     -1.20614007     -2.32469173
C     -10.28728065     -0.31099897     -1.09135238
C      -9.30387825     -0.91744050     -0.08698501
C      -9.18855357     -0.11601427      1.21367014
C      -8.72156993      1.33698962      1.06237873
C      -7.36241986      1.52018449      0.37989538
C      -6.22916421      0.91016390      1.15555461
C      -5.43490692     -0.06356662      0.68372267
C      -4.29744193     -0.66505052      1.45924478
C      -2.96214907     -0.43585216      0.74700706
C      -1.79657314     -1.01003467      1.55611645
C      -0.44955780     -0.92254099      0.83207238
C       0.00474843      0.48621965      0.43811771
C       0.09311375      1.50174209      1.58326080
C       1.04364452      1.11252001      2.71293793
C       2.46990831      0.93472416      2.25502048
O       3.10334975     -0.10342017      2.38571278
O       2.94612219      2.08839542      1.71121610
C       4.30766572      2.04844781      1.25264105
C       5.24243558      2.43892992      2.39425194
C       6.71527553      2.50647827      1.98463221
C       7.52437722      1.24679931      2.31250175
C       7.12120234     -0.03135633      1.57638063
C       7.30970088      0.05858437      0.05984627
C       6.98623897     -1.27685664     -0.61471635
C       7.03385255     -1.21585230     -2.14463092
C       8.36794959     -0.77537229     -2.75465655
C       9.53947278     -1.68689746     -2.38387997
C      10.82301436     -1.25185509     -3.09240775
C      11.99291083     -2.15238401     -2.72919057
H     -13.37572858     -0.08727541     -3.83920228
H     -12.88228967      0.30127187     -2.18843884
H     -13.19397812     -1.38556090     -2.64807957
H     -10.92225538      0.37694108     -3.71890705
H     -11.28736094     -1.24612720     -4.29479825
H     -10.83925581     -2.18253503     -2.02771644
H      -9.44461074     -1.39038332     -2.75579912
H     -11.25920463     -0.17592107     -0.60408114
H      -9.93879413      0.67793981     -1.40852712
H      -8.31747202     -1.02565610     -0.55180776
H      -9.63511954     -1.93213494      0.16890423
H     -10.16645494     -0.11063235      1.71144009
H      -8.50933380     -0.64783572      1.89090531
H      -9.47453163      1.90647475      0.50483649
H      -8.68608224      1.79067909      2.06154620
H      -7.16306332      2.59490220      0.28766434
H      -7.39680611      1.13059929     -0.64373599
H      -6.05679144      1.31048523      2.15269719
H      -5.60784906     -0.46483200     -0.31308001
H      -4.25324101     -0.24375501      2.47112892
H      -4.48087756     -1.74066111      1.56896514
H      -2.81526238      0.63986117      0.59295488
H      -2.98632826     -0.90375101     -0.24536819
H      -1.99609741     -2.06736917      1.77220261
H      -1.73469976     -0.50429382      2.52680649
H      -0.49988331     -1.53278124     -0.07871724
H       0.31673436     -1.38929250      1.46217971
H       0.98362921      0.40767955     -0.05096342
H      -0.67407042      0.88370598     -0.32607373
H       0.40640006      2.46396133      1.15909838
H      -0.90452556      1.67038247      2.00463291
H       1.03677811      1.88166965      3.49394787
H       0.71614738      0.18381471      3.19199526
H       4.54408484      1.07029238      0.82410619
H       4.38645692      2.77824017      0.43937911
H       5.10274360      1.77156009      3.25281255
H       4.93167079      3.43092117      2.74861143
H       7.17603282      3.32963726      2.54689803
H       6.81831527      2.77396009      0.92726536
H       7.46088657      1.05855271      3.39195890
H       8.58172512      1.45350999      2.10319316
H       6.08656091     -0.29704029      1.81767344
H       7.74286707     -0.85091224      1.95994094
H       6.66428092      0.83865112     -0.35780678
H       8.34609161      0.34412069     -0.15349762
H       5.97693749     -1.59195526     -0.32022465
H       7.66860899     -2.05288461     -0.24895869
H       6.77292260     -2.20612225     -2.53855797
H       6.25186433     -0.53033987     -2.49480865
H       8.59173956      0.25696693     -2.46187765
H       8.25414201     -0.76583709     -3.84616208
H       9.70521912     -1.66590114     -1.30084040
H       9.30084775     -2.72171095     -2.65768755
H      10.67587658     -1.27411834     -4.17857724
H      11.06598398     -0.21838647     -2.81881160
H      12.18572770     -2.13027478     -1.65183356
H      11.79518918     -3.18834918     -3.02265223
H      12.90045789     -1.82061482     -3.24310090
