14
O=[N+]([O-])OCCO[N+](=O)[O-]
O      -3.24593112     -0.00733472     -0.46561172
N      -2.73246962      0.39829654      0.57789314
O      -3.24477538      0.94664839      1.55073230
O      -1.33638342      0.21605985      0.72359885
C      -0.74744580     -0.41889731     -0.41108382
C       0.75010025     -0.56192636     -0.15473598
O       1.33382358      0.74047464     -0.17800828
N       2.72949539      0.71233689      0.05609651
O       3.24701762     -0.39113410      0.23387471
O       3.23731562      1.83100079      0.03957442
H      -1.17982194     -1.41732003     -0.54587364
H      -0.90671513      0.19483117     -1.30609634
H       1.18682832     -1.18050466     -0.94757580
H       0.90896164     -1.02410629      0.82721565
