10
OCCO
O       1.31352128     -0.16190836      1.13234318
C       0.39252271     -0.85048546      0.28811268
C      -0.27673533      0.14726692     -0.64884010
O      -0.94807808      1.13170893      0.13962525
H       0.81498217      0.61032442      1.46654693
H       0.93681883     -1.61468672     -0.27312776
H      -0.34616830     -1.33639795      0.93309305
H       0.47037661      0.66297022     -1.25990711
H      -1.00556573     -0.35040151     -1.29457715
H      -1.35167418      1.76160952     -0.48326896
