35
CCCCNC(=O)NS(=O)(=O)c1ccc(N)cc1
C      -3.65003013      2.11334449     -0.08383183
C      -3.47692514      0.61187582     -0.25208005
C      -2.97832369     -0.04074984      1.03914789
C      -2.84111224     -1.55826449      0.91368375
N      -1.82826096     -1.94902016     -0.04405538
C      -0.50172058     -1.96657436      0.27434394
O      -0.06204567     -1.69125758      1.37775651
N       0.28985678     -2.30490064     -0.80720291
S       1.94544510     -2.43258586     -0.77449579
O       2.34599226     -3.31898107      0.29432529
O       2.32604224     -2.71244042     -2.14555770
C       2.48004753     -0.78170472     -0.40522768
C       2.66745234      0.13363717     -1.44334683
C       3.12085781      1.42309755     -1.15056052
C       3.35828901      1.81606074      0.17062045
N       3.92370828      3.06664960      0.44136132
C       3.23655385      0.86477605      1.18839804
C       2.78528184     -0.42803999      0.90948628
H      -4.37850956      2.33898625      0.70147538
H      -2.70067474      2.59026517      0.18008123
H      -4.00708049      2.56052324     -1.01681984
H      -2.76981724      0.42614185     -1.06844357
H      -4.43617413      0.17011058     -0.54578892
H      -3.68434075      0.17854511      1.84933719
H      -2.01578397      0.40085371      1.32445489
H      -3.78668601     -2.00725725      0.59209231
H      -2.58126000     -1.98289152      1.88988930
H      -2.11066506     -2.14960416     -0.98954332
H      -0.09958783     -2.48154736     -1.72160995
H       2.48621068     -0.14902250     -2.47731518
H       3.29514485      2.12012978     -1.96637891
H       3.69504638      3.78241780     -0.24070819
H       3.78455337      3.38331666      1.39602321
H       3.49258264      1.12198684      2.21316765
H       2.67593323     -1.14787651      1.71858622
