44
Nc1ccc(OP(=S)(Oc2ccc(N)cc2)Oc2ccc(N)cc2)cc1
N      -5.59450575     -2.03447668      1.43008352
C      -4.29488024     -1.85211539      0.94643941
C      -3.19988307     -1.98276037      1.80105275
C      -1.90947415     -1.68682490      1.35362355
C      -1.70399041     -1.21793395      0.05669787
O      -0.40669807     -0.95341501     -0.27449197
P       0.15638784     -0.55742181     -1.73912897
S      -0.06552694     -1.86995326     -3.16382143
O       1.68500313     -0.12174681     -1.43117613
C       2.64887502     -0.89068327     -0.84569675
C       2.47798892     -2.20791187     -0.43440101
C       3.54142787     -2.89351065      0.16558323
C       4.76508734     -2.26233131      0.40007878
N       5.85312792     -2.99115731      0.88889711
C       4.94240226     -0.96068656     -0.06967145
C       3.88542227     -0.27084505     -0.66963453
O      -0.53889025      0.87078903     -2.05291530
C      -0.53236408      1.99563145     -1.27953852
C       0.06796777      2.10908609     -0.03063168
C       0.00057130      3.32013523      0.66921101
C      -0.69895336      4.41256966      0.15242449
N      -0.65808792      5.64946724      0.80382919
C      -1.24582991      4.30680923     -1.12637219
C      -1.18311441      3.10018679     -1.82883951
C      -2.79503717     -1.02160536     -0.78223846
C      -4.08515149     -1.32046951     -0.32785876
H      -6.27886327     -2.22547196      0.70466322
H      -5.65788185     -2.69355405      2.19962541
H      -3.34063730     -2.31779060      2.82505991
H      -1.06708631     -1.81326911      2.02872816
H       1.54624860     -2.74531676     -0.57538450
H       3.40292360     -3.93460719      0.44695807
H       6.58078326     -2.42039389      1.30719276
H       5.59613047     -3.78090792      1.47230184
H       5.90712056     -0.46965016      0.02527471
H       4.03789005      0.74957941     -1.01259206
H       0.60563145      1.28934077      0.43254739
H       0.50202191      3.40012666      1.63049439
H      -0.54449100      5.58035784      1.81028441
H      -1.41550866      6.27436525      0.54557469
H      -1.72929384      5.16285587     -1.58914713
H      -1.63443269      3.03215648     -2.81557667
H      -2.69231732     -0.62389538     -1.78627843
H      -4.93011208     -1.13275091     -0.98585496
