26
COc1cc(C=O)cc(OC)c1OC
C       2.00245152      0.17798284      3.25874959
O       1.13036389      0.85552247      2.36339576
C       0.71267424      0.17184803      1.25141905
C       0.97155907     -1.17474894      1.00011225
C       0.49632337     -1.76791569     -0.17571462
C       0.77075722     -3.19574720     -0.43831645
O       1.39892417     -3.89223152      0.34888164
C      -0.23708883     -1.03361862     -1.11461514
C      -0.50461946      0.31505531     -0.87791766
O      -1.21332718      1.13147492     -1.72051757
C      -1.52825483      0.63131639     -3.01257097
C      -0.04239162      0.90240486      0.31524240
O      -0.26696431      2.24524848      0.52984308
C      -1.47390373      2.42269180      1.26936505
H       1.49520447     -0.66627639      3.73684912
H       2.91888151     -0.14423362      2.75325015
H       2.28698386      0.88322512      4.04557073
H       1.53707079     -1.78635621      1.69683129
H       0.37985523     -3.60945497     -1.38302611
H      -0.59065686     -1.52709303     -2.01310273
H      -2.24395683     -0.19458963     -2.94838591
H      -0.62514269      0.33094468     -3.55425699
H      -2.00268005      1.43923419     -3.57785034
H      -2.33808141      2.02731878      0.72428735
H      -1.40799863      1.96072364      2.26035680
H      -1.62598289      3.49727430      1.40815235
