20
COc1cc(C(=O)O)ccc1O
C      -2.83877240     -0.95564055     -0.50507061
O      -2.34000525      0.12487954      0.27651430
C      -0.97907213      0.29110225      0.29702952
C      -0.04275110     -0.49551645     -0.37286954
C       1.32818106     -0.20625128     -0.25971844
C       2.28389559     -1.07265558     -0.99169887
O       1.98724647     -2.02390338     -1.69083560
O       3.56513259     -0.70745435     -0.81393903
C       1.75928128      0.87220293      0.52555741
C       0.82549972      1.66050614      1.19653620
C      -0.52647270      1.36327374      1.07586318
O      -1.42131687      2.15312502      1.74498868
H      -2.47620257     -1.91676370     -0.12589950
H      -2.58779516     -0.82576788     -1.56295906
H      -3.92961187     -0.95368426     -0.41887777
H      -0.34533243     -1.33729424     -0.98844360
H       4.07343949     -1.35549138     -1.34539021
H       2.81686376      1.10579843      0.62077703
H       1.14675446      2.49874782      1.80797038
H      -2.29896193      1.78078720      1.53046553
