17
CCCOC(C)=O
C      -2.88522123      0.19781817      0.18712254
C      -1.52825182     -0.42616324      0.45854294
C      -0.40070458      0.35993654     -0.19907534
O       0.83648899     -0.29681113      0.10785584
C       1.93458714      0.30711909     -0.42316845
C       3.16928284     -0.45266394     -0.04620935
O       1.92771271      1.31998464     -1.10807533
H      -2.93190546      1.21982155      0.57651137
H      -3.09473280      0.22918658     -0.88684896
H      -3.67484646     -0.38606875      0.67025125
H      -1.51497133     -1.46101611      0.09591012
H      -1.35431424     -0.48358462      1.53976810
H      -0.54200802      0.38400282     -1.28602988
H      -0.37761786      1.38415453      0.19138659
H       4.04458477      0.04114848     -0.47789878
H       3.11349253     -1.47014748     -0.44114723
H       3.27842481     -0.46671714      1.04110457
