18
CCC(NC=O)C(=O)O
C       2.20519145      0.57321213      0.56300967
C       1.11908253     -0.45107556      0.86221913
C      -0.08006388     -0.32774553     -0.08379064
N      -0.78334530      0.93783121      0.13558972
C      -1.38518011      1.59167481     -0.90840258
O      -1.26770767      1.30693113     -2.09052186
C      -1.01697767     -1.52168739      0.14458074
O      -0.74854219     -2.69609923     -0.05839211
O      -2.21236096     -1.19311830      0.68635166
H       1.84160411      1.59530387      0.70705927
H       3.05831430      0.42363837      1.23240683
H       2.56192200      0.47581981     -0.46729883
H       0.79380446     -0.33707362      1.90406656
H       1.55625653     -1.45386261      0.77987594
H       0.24639740     -0.37761212     -1.12906242
H      -1.20234112      1.07390598      1.04742282
H      -2.00700416      2.43365630     -0.56081197
H      -2.67904973     -2.05369923      0.74760820
