29
O=C1C=CC=C/C1=C/NNC(=O)c1ccncc1
O      -2.50895832     -1.21621322      1.67578144
C      -3.20175875     -0.59003247      0.87968937
C      -4.64498869     -0.37217200      1.16264907
C      -5.41761227      0.30828838      0.30528126
C      -4.89835990      0.86050542     -0.92303133
C      -3.60969633      0.71598822     -1.26332108
C      -2.68203051     -0.00535163     -0.40704944
C      -1.38631128     -0.15600741     -0.73475236
N      -0.38753950     -0.80507464     -0.04246047
N       0.95259153     -0.45333710     -0.23501008
C       1.67633618     -0.11582623      0.90019534
O       1.17609472      0.05086384      2.00852338
C       3.14827381      0.00115559      0.72428037
C       3.96347001     -0.18096060      1.84215984
C       5.33058031     -0.06938794      1.67532908
N       5.91835450      0.21209528      0.49255131
C       5.10599399      0.40391864     -0.56794500
C       3.72657098      0.31188823     -0.50732262
H      -5.02355865     -0.78882037      2.08737752
H      -6.47073989      0.46306004      0.52198158
H      -5.58562290      1.40192508     -1.56722128
H      -3.24164263      1.14235540     -2.19170592
H      -1.01464806      0.26987596     -1.66368963
H      -0.63735890     -0.98159549      0.94932509
H       1.40938845     -0.95095750     -0.99224133
H       3.54306924     -0.40562206      2.81744978
H       6.01042483     -0.20579530      2.51182300
H       5.61254041      0.64810717     -1.49787851
H       3.13713761      0.50712673     -1.39478373
