31
CC(=O)Oc1ccccc1C(=O)Oc1ccccc1
C      -2.09898082      2.95070599      1.13032946
C      -2.00835290      1.45596590      1.06475856
O      -1.50484334      0.75162316      1.93076710
O      -2.59523849      1.01877881     -0.11832280
C      -2.48616101     -0.36163135     -0.32925107
C      -3.67543685     -1.09288272     -0.26598869
C      -3.65190766     -2.46906256     -0.48741996
C      -2.44793767     -3.10865232     -0.78370183
C      -1.26166543     -2.37309352     -0.86559153
C      -1.27050842     -0.98735141     -0.64225817
C      -0.02286923     -0.19107183     -0.76101833
O       0.00491990      0.97850362     -1.11307246
O       1.04354168     -0.98253431     -0.37740140
C       2.24588163     -0.27824726     -0.30673544
C       2.53836162      0.46852226      0.83388921
C       3.76354572      1.12786183      0.91774367
C       4.68528862      1.02428343     -0.12708402
C       4.38666925      0.25803928     -1.25684570
C       3.16305868     -0.40420103     -1.34738180
H      -1.58507692      3.39121511      0.27225592
H      -1.61184612      3.30263538      2.04416585
H      -3.14748364      3.25765916      1.15163641
H      -4.61403550     -0.59470141     -0.03924214
H      -4.57314024     -3.04424471     -0.43010699
H      -2.43308027     -4.18253942     -0.95697731
H      -0.33889971     -2.89247556     -1.11428897
H       1.81880905      0.54052183      1.64458100
H       4.00103438      1.72171653      1.79630995
H       5.63950442      1.54091381     -0.05986288
H       5.10891862      0.17828870     -2.06492315
H       2.92793065     -1.00454544     -2.22012524
