40
O=C1NCC(=O)N(CC(O)C(O)C(O)CO)c2ccccc21
O      -5.06627100     -1.11758494      1.38862472
C      -4.04891038     -1.17100208      0.70509010
N      -3.56801789     -2.37802863      0.29880137
C      -2.52272755     -2.54587577     -0.67127483
C      -1.20651529     -2.18879815     -0.00957083
O      -0.32130074     -3.04407896      0.10657456
N      -0.99555799     -0.86073723      0.36268629
C       0.32178310     -0.53545356      0.95629652
C       1.47590161     -0.53196317     -0.07773173
O       2.01825760     -1.84416334     -0.25628638
C       2.61697781      0.39677135      0.37248696
O       2.15047207      1.75265656      0.44685158
C       3.86537434      0.34019087     -0.53016985
O       4.82685104      1.29094798     -0.00940385
C       3.59415891      0.73102041     -1.98697055
O       4.83118247      0.77249408     -2.70274798
C      -1.94605111      0.20435401      0.16656457
C      -1.45359772      1.49056323     -0.14321971
C      -2.30141825      2.58501760     -0.34423504
C      -3.67347912      2.43005805     -0.22886891
C      -4.19201283      1.17931624      0.08930827
C      -3.34674057      0.06600789      0.28081915
H      -4.12194856     -3.17620053      0.58620248
H      -2.69728029     -1.92393862     -1.55428172
H      -2.50662177     -3.59738618     -0.97287088
H       0.24555641      0.41258833      1.49946085
H       0.52686301     -1.29963237      1.71811098
H       1.08586613     -0.19481985     -1.04470698
H       1.27522166     -2.48758158     -0.21312971
H       2.92953643      0.12276512      1.38831504
H       2.95856433      2.30318560      0.51354049
H       4.34327118     -0.64558525     -0.49889728
H       5.25597488      0.85781824      0.75212719
H       3.14903179      1.72843629     -2.05868947
H       2.93913401      0.01265533     -2.48653541
H       5.43677322      1.28387947     -2.13094710
H      -0.38906665      1.67563032     -0.26554498
H      -1.88069806      3.55813326     -0.58808521
H      -4.33822109      3.27806749     -0.37258265
H      -5.27031511      1.07027248      0.20433858
