36
C=CCSC(CCC(SCC=C)C(=O)O)C(=O)O
C       3.62045653      2.84424324     -1.08083076
C       2.40271432      2.29091277     -0.99809865
C       2.14610229      0.81839272     -0.87968543
S       1.19742562      0.28343071     -2.34125713
C       0.86402466     -1.47548238     -1.91808955
C       0.00140001     -1.68300714     -0.66160201
C      -1.38916541     -1.03804799     -0.75274900
C      -2.29894604     -1.34346922      0.44684611
S      -1.62369573     -0.86878674      2.09170650
C      -1.46761471      0.93834851      1.91862495
C      -0.52603541      1.43064511      2.97799856
C      -0.85940034      2.29393372      3.94720968
C      -3.67222419     -0.73479068      0.21587373
O      -4.00506624      0.43104616      0.35413091
O      -4.56348416     -1.63522365     -0.25273512
C       2.17322539     -2.23641724     -1.79532612
O       2.87366927     -2.32818845     -0.79928631
O       2.54628499     -2.83558133     -2.94472156
H       4.52389774      2.24228034     -1.07809910
H       3.73593013      3.92098225     -1.16014067
H       1.53133861      2.94336672     -1.00165870
H       1.57226775      0.64059525      0.03335385
H       3.08703221      0.26456955     -0.82314511
H       0.31571337     -1.90025060     -2.76814883
H       0.53714434     -1.32340322      0.22306508
H      -0.12581745     -2.76313301     -0.50614697
H      -1.30615470      0.04487354     -0.89077738
H      -1.88336738     -1.40737140     -1.66195182
H      -2.43092966     -2.43051308      0.51187356
H      -1.05310460      1.20504679      0.94405184
H      -2.45053832      1.40425586      2.02673236
H       0.49807305      1.06464348      2.93370283
H      -1.86560823      2.69261396      4.03476663
H      -0.12749803      2.61310548      4.68255851
H      -5.39041137     -1.11830323     -0.35719158
H       3.41236170     -3.24531677     -2.73805581
