22
Clc1cc(Cl)c(-c2c(Cl)ccc(Cl)c2Cl)cc1Cl
Cl     -5.24418087     -0.27652934      0.18103413
C      -3.51900973     -0.19032272      0.15905964
C      -2.90079203      0.13274881     -1.05038199
C      -1.50771727      0.21693440     -1.12513690
Cl     -0.80883948      0.62278918     -2.65494493
C      -0.70694396     -0.02105452      0.00844682
C       0.76888870      0.05937907     -0.03182139
C       1.43315576      1.27681208      0.23215284
Cl      0.56213796      2.72066548      0.62954323
C       2.82703382      1.36731494      0.18597335
C       3.58951316      0.24425411     -0.12414640
C       2.96220038     -0.97442495     -0.38762586
Cl      3.98173143     -2.32119950     -0.75958063
C       1.56042599     -1.07340827     -0.34271026
Cl      0.78686836     -2.60009297     -0.66687441
C      -1.34772398     -0.34521096      1.21904136
C      -2.74240363     -0.42984785      1.29648226
Cl     -3.43722897     -0.83311888      2.82551625
H      -3.50411559      0.31929861     -1.93598179
H       3.32514089      2.31324382      0.38953862
H       4.67400914      0.32573967     -0.15898382
H      -0.75215008     -0.53397023      2.11139990
