29
OC(Cc1ccccc1)c1ccccc1
O       1.28662209     -1.40492535     -2.53043249
C       0.68863630     -1.04152991     -1.27939884
C      -0.80083265     -0.73719423     -1.51250017
C      -1.61127976     -0.70267100     -0.23807093
C      -2.13975771     -1.88505455      0.29783268
C      -2.87013358     -1.85771558      1.48679822
C      -3.07565428     -0.65069623      2.15235603
C      -2.55123088      0.52994517      1.62987599
C      -1.82208856      0.50509650      0.44029737
C       1.45967338      0.11656848     -0.67639148
C       1.76477267      1.25721862     -1.43642149
C       2.46545986      2.32272444     -0.86973018
C       2.86586894      2.26317129      0.46332952
C       2.56471958      1.13990001      1.23096003
C       1.86512590      0.07240557      0.66550809
H       2.24726184     -1.28870566     -2.42523917
H       0.79122051     -1.92377873     -0.63567268
H      -1.22716427     -1.50040812     -2.17810220
H      -0.92754927      0.20486567     -2.06232605
H      -1.98737154     -2.83493150     -0.21007014
H      -3.27957228     -2.77862400      1.89352010
H      -3.64437964     -0.62981210      3.07807139
H      -2.70785901      1.47166074      2.14921485
H      -1.41169489      1.43410096      0.04949168
H       1.45383305      1.31861889     -2.47793095
H       2.69651557      3.20013952     -1.46820802
H       3.40941694      3.09393081      0.90559480
H       2.87036540      1.09620431      2.27318639
H       1.62707627     -0.79050403      1.28445763
