21
Cn1c(=O)c2ncnnc2n(C)c1=O
C      -2.72241462     -1.36336291     -0.01390936
N      -1.40548950     -0.75004194     -0.03570604
C      -0.29767906     -1.59534985     -0.03427808
O      -0.38215143     -2.82127033     -0.00111827
C       1.02730517     -0.94765530     -0.06311517
N       2.12082257     -1.75230774     -0.12100800
C       3.28557266     -1.09920062     -0.13998901
N       3.41552452      0.24014129     -0.10646129
N       2.29113023      1.01494032     -0.04749574
C       1.07793777      0.42577719     -0.02592984
N      -0.09158142      1.20389899      0.04310646
C       0.06844513      2.64850772      0.11362864
C      -1.35091989      0.63727586      0.05897704
O      -2.37092841      1.32051361      0.15717151
H      -2.70089391     -2.38453949     -0.40437143
H      -3.42619273     -0.77568641     -0.61170996
H      -3.07414503     -1.38453993      1.02252588
H       4.19553640     -1.68464762     -0.18565116
H       0.60354003      2.99865223     -0.77510847
H      -0.89596805      3.16221708      0.15466142
H       0.63254958      2.90667784      1.01578084
