20
NC1(C(=O)O)CCCC1
N       1.41558484      0.11301056     -0.99188525
C       0.59725902      0.02976671      0.25834795
C       1.54804588      0.01613417      1.47134644
O       1.22779423      0.18933646      2.63576792
O       2.82520804     -0.24082095      1.07816919
C      -0.43599161      1.15518373      0.33125463
C      -1.57196180      0.69271809     -0.57576879
C      -1.52616170     -0.83580761     -0.55815895
C      -0.28481006     -1.22165646      0.24682348
H       1.66220458      1.09716244     -1.14564016
H       0.81820595     -0.12104099     -1.78985355
H       2.78605525     -0.33667876      0.09307267
H      -0.03888165      2.12903571      0.02468029
H      -0.81167415      1.27511490      1.35540399
H      -1.41581381      1.05726696     -1.59782334
H      -2.53941002      1.07620751     -0.23659442
H      -2.42964007     -1.25901505     -0.10676422
H      -1.46171424     -1.22188794     -1.58170836
H       0.21793002     -2.09796265     -0.17796071
H      -0.58222872     -1.49606683      1.26729119
