56
CCCCCCOC(=O)CCCCC(=O)OCCCCCC
C      -7.73808629      2.72885646     -0.60320899
C      -6.64352552      1.69172775     -0.40111597
C      -6.94786078      0.40387707     -1.16757949
C      -5.82276968     -0.63217024     -1.08582914
C      -5.61668108     -1.19355539      0.32477410
C      -4.59111077     -2.32669599      0.34857464
O      -3.31529350     -1.88161174     -0.13658307
C      -2.50599400     -1.28265897      0.78282745
O      -2.78514130     -1.10438087      1.95933762
C      -1.22017580     -0.85680233      0.11061582
C      -0.17851739     -0.31303046      1.08942618
C       0.46659562     -1.41889231      1.93474473
C       1.47871170     -0.86876180      2.93632782
C       2.70774083     -0.31706013      2.25976418
O       2.95050282      0.87632427      2.14556134
O       3.48245824     -1.33124360      1.78575382
C       4.67918527     -0.93224826      1.09692282
C       4.36446250     -0.66546209     -0.37291492
C       5.60232230     -0.36943616     -1.22019749
C       6.28809186      0.94686462     -0.84769578
C       7.45458401      1.24880571     -1.78941302
C       8.14198341      2.55483083     -1.42367132
H      -7.84041196      2.99118066     -1.66122901
H      -8.70305953      2.35479872     -0.24657943
H      -7.50180121      3.64251633     -0.04856789
H      -5.68728349      2.10850644     -0.73751858
H      -6.55106027      1.48524909      0.67045292
H      -7.88173787     -0.03654278     -0.79772154
H      -7.11145447      0.64729362     -2.22489996
H      -4.89076135     -0.18681730     -1.45382543
H      -6.06877102     -1.45750247     -1.76557383
H      -5.27918349     -0.39005699      0.98812004
H      -6.56877214     -1.56841467      0.71745551
H      -4.49910842     -2.75126904      1.35555331
H      -4.91657120     -3.14168678     -0.30745276
H      -0.80659303     -1.70933876     -0.43955349
H      -1.47652260     -0.06823766     -0.60629984
H      -0.63288865      0.43950675      1.74520800
H       0.60011356      0.19649636      0.50923890
H       0.94912850     -2.14848285      1.27310976
H      -0.30771857     -1.95823837      2.49179624
H       1.79685064     -1.65564120      3.63026058
H       1.03258226     -0.07720240      3.54910812
H       5.38567039     -1.76488823      1.18366542
H       5.13818528     -0.06919450      1.59114903
H       3.85177331     -1.54320407     -0.78659290
H       3.64615652      0.15880715     -0.45906997
H       5.29458583     -0.32737326     -2.27280680
H       6.31569347     -1.19834083     -1.13279356
H       6.66178787      0.89869738      0.18114215
H       5.55997069      1.76583151     -0.89113595
H       7.09350974      1.31038738     -2.82279280
H       8.18619246      0.43322948     -1.74899611
H       8.97278432      2.75068889     -2.10877131
H       7.44433684      3.39611098     -1.48650131
H       8.54289514      2.51585504     -0.40573696
