13
Cc1snnc1C(=O)O
C      -1.94089143     -0.03756956     -0.16662616
C      -0.61726967      0.63043203     -0.10471283
S      -0.45213118      2.33382481     -0.22742094
N       1.21170229      2.28560654     -0.07810703
N       1.68042074      1.05891646      0.06162634
C       0.65890621      0.10631456      0.04903357
C       0.99553473     -1.30313076      0.19193576
O       0.17818775     -2.21286667      0.19373609
O       2.33055335     -1.52762161      0.32670497
H      -2.76017714      0.67715485     -0.29578352
H      -1.97501860     -0.73810956     -1.00731529
H      -2.12914807     -0.59614051      0.75599907
H       2.81933103     -0.67681057      0.30092998
