40
CCCCCCN(C)N=Nc1ccc(C(=O)O)cc1
C      -5.36300034     -0.78229142     -2.04698159
C      -4.27838312     -1.12856334     -1.03814060
C      -3.22339644     -0.02397485     -0.95444489
C      -2.07543736     -0.35157146      0.00501734
C      -2.49488665     -0.33577077      1.47748410
C      -1.36530562     -0.73964783      2.43129841
N      -0.23375495      0.18066335      2.46838241
C      -0.45219178      1.53029866      2.97031468
N       0.75557247     -0.08409808      1.55720503
N       1.62458425      0.80327016      1.48350305
C       2.62962364      0.52464311      0.53188072
C       3.58598332      1.52276790      0.29893149
C       4.62412362      1.33688954     -0.62211793
C       4.72311928      0.13505569     -1.32962471
C       5.79930402     -0.11374867     -2.31953414
O       5.94323299     -1.12849851     -2.97607959
O       6.64904152      0.92118440     -2.43873475
C       3.77953579     -0.87264141     -1.10829913
C       2.74288592     -0.67693149     -0.18715721
H      -5.89221564      0.12930291     -1.74827785
H      -4.94218776     -0.62380899     -3.04560156
H      -6.09498254     -1.59352631     -2.11009695
H      -4.74926618     -1.28612207     -0.06267115
H      -3.80469774     -2.07350170     -1.32858189
H      -2.79793388      0.13448901     -1.95375824
H      -3.69448515      0.92109919     -0.65971188
H      -1.64650176     -1.32719738     -0.25155010
H      -1.28886794      0.39507865     -0.15388666
H      -3.32055212     -1.03904067      1.63333690
H      -2.87250198      0.65933296      1.73997067
H      -0.99115485     -1.73952266      2.17672919
H      -1.75875333     -0.80325656      3.45299084
H      -0.87500874      2.14888891      2.17370318
H      -1.14814711      1.49218595      3.81331446
H       0.48644507      1.96084100      3.32954114
H       3.51828034      2.46272653      0.84279104
H       5.34476618      2.13566107     -0.77708457
H       7.29395056      0.61862383     -3.11192635
H       3.83864503     -1.81091204     -1.65515708
H       2.02451899     -1.47837656     -0.03324069
