22
C1=CC2C3C=CC(C3)C2C1
C      -2.21648951     -0.94443311      0.14529199
C      -1.12425505     -1.68770070      0.34659423
C       0.07016776     -0.86169000      0.70520452
C       1.20211913     -0.82528253     -0.35420494
C       2.29771308      0.06623793      0.19375845
C       1.83223584      1.32567300      0.16795932
C       0.42782618      1.27327714     -0.39896640
C       0.64094239      0.13920033     -1.40820999
C      -0.47330329      0.60891872      0.67633338
C      -1.95987406      0.51846674      0.30648976
H      -3.18675564     -1.34604893     -0.11541724
H      -1.09710082     -2.76677435      0.27376681
H       0.43839093     -1.13687411      1.70049442
H       1.54081723     -1.78648284     -0.74336891
H       3.24941635     -0.26539701      0.57991409
H       2.33592769      2.20954759      0.52885791
H       0.07040585      2.21277751     -0.82213844
H       1.36408930      0.38909363     -2.19614333
H      -0.27949869     -0.20799469     -1.88704924
H      -0.35372727      1.10179969      1.64981074
H      -2.19722845      1.06630341     -0.61067482
H      -2.58181896      0.91738259      1.11485858
