15
O=[N+]([O-])c1cc(Cl)ccc1O
O      -2.11071238     -2.23671972     -0.20036557
N      -2.01312972     -1.00498289     -0.12092223
O      -2.97728250     -0.22298744     -0.10026026
C      -0.67178434     -0.42285265     -0.04579359
C       0.43808267     -1.28207833     -0.06703117
C       1.72065027     -0.74140878      0.00381273
Cl      3.08779186     -1.78495906     -0.02142507
C       1.90703604      0.63722856      0.09497053
C       0.80080989      1.48892154      0.11584489
C      -0.49074468      0.96521757      0.04579417
O      -1.49441967      1.89392406      0.07443301
H       0.31605839     -2.36093694     -0.13767437
H       2.90909341      1.05647325      0.15012375
H       0.94622261      2.56500795      0.18699616
H      -2.36767186      1.45015287      0.02149702
