26
COC(=O)c1ccc(C(=O)OC)c(N)c1
C       5.04061751     -0.41702573      0.13200458
O       3.64512899     -0.32526519     -0.15896824
C       2.86458507     -0.15151548      0.93607950
O       3.25748800     -0.07909469      2.08980093
C       1.42881161     -0.06415041      0.55370233
C       0.48339561      0.09118318      1.57260172
C      -0.87326888      0.20333521      1.26094795
C      -1.30365547      0.15127415     -0.07603249
C      -2.75578373      0.25974276     -0.39999319
O      -3.25179491     -0.13689184     -1.44472654
O      -3.42621524      0.86255919      0.61512264
C      -4.82418671      1.02560554      0.37170896
C      -0.36430513     -0.05723191     -1.10975479
N      -0.71015440      0.02022923     -2.47275437
C       0.99995001     -0.11922733     -0.78043672
H       5.57520471     -0.55117240     -0.81242645
H       5.24282137     -1.28262846      0.77062247
H       5.39563415      0.50493877      0.60312920
H       0.79920406      0.13735151      2.61388853
H      -1.58641514      0.33171485      2.07239758
H      -4.98948825      1.65611596     -0.50756779
H      -5.30757034      0.05147135      0.24782573
H      -5.26361980      1.52209001      1.24125758
H      -1.70200197     -0.18543096     -2.63954998
H      -0.10457523     -0.50304167     -3.09674001
H       1.73019411     -0.20392279     -1.58213912
