28
C[C@](N)(Cc1ccc(O)c(O)c1)C(=O)O
C      -1.73583584      1.37501493      0.03025415
C      -1.97732972     -0.13477927      0.11211510
N      -3.25721618     -0.34172430      0.89438986
C      -0.83992697     -0.93713352      0.79579449
C       0.58059438     -0.52024462      0.48605810
C       1.26425139     -1.04874950     -0.62141266
C       2.57467749     -0.65513085     -0.91306925
C       3.20535480      0.26628031     -0.08844494
O       4.48338610      0.69207903     -0.32272626
C       2.54006301      0.78837971      1.01600442
O       3.16638044      1.69319119      1.82490817
C       1.23909938      0.40476875      1.31131156
C      -2.25082494     -0.66129057     -1.32298740
O      -1.42123379     -0.88827930     -2.18729709
O      -3.58738234     -0.83248248     -1.52715741
H      -2.60480711      1.89291353     -0.39453387
H      -0.88853006      1.61230730     -0.62272910
H      -1.54130145      1.80666792      1.01828269
H      -3.18748799      0.20570285      1.75849382
H      -3.28090700     -1.31605201      1.21732738
H      -0.95946821     -0.87493050      1.88743561
H      -0.94715323     -2.00640736      0.56458836
H       0.77742470     -1.77049193     -1.27604487
H       3.07214718     -1.07540213     -1.78113486
H       4.79760874      0.25840324     -1.13499835
H       4.05106227      1.80440288      1.42237566
H       0.74848669      0.83179810      2.18145030
H      -4.02113175     -0.56881138     -0.67589067
