32
CC(=O)OC(OC(C)=O)C(OC(C)=O)OC(C)=O
C       2.37354353     -0.32295771     -2.95815329
C       1.63845928      0.48184874     -1.93056911
O       1.28546813      1.64064956     -2.08909380
O       1.43092021     -0.26595292     -0.81982199
C       0.71116791      0.37546345      0.26448826
O       1.18699405     -0.24770607      1.47489058
C       0.90245267      0.42883475      2.61711024
C       1.42686292     -0.31595574      3.80578451
O       0.32316369      1.50209923      2.67209512
C      -0.82937570      0.15470655      0.06992489
O      -1.09141974     -1.25674023     -0.14064091
C      -1.29923836     -2.00328845      0.97089672
C      -1.53625098     -3.43237560      0.58941742
O      -1.29665541     -1.59048081      2.12073814
O      -1.31574356      0.82515568     -1.11065493
C      -1.48109035      2.16640798     -0.98011980
C      -1.97101800      2.75654235     -2.26634596
O      -1.28288710      2.80235261      0.04300551
H       2.53504791      0.28886481     -3.85031125
H       3.34627080     -0.62785139     -2.56421320
H       1.77991605     -1.19680463     -3.23824488
H       0.97386955      1.44003475      0.28554284
H       1.07990894      0.17254906      4.72078620
H       2.51938443     -0.30956366      3.79236095
H       1.04941379     -1.34164267      3.80157313
H      -1.40606325      0.49839127      0.93715026
H      -1.70177477     -4.02614065      1.49296649
H      -0.65978739     -3.82707867      0.06934551
H      -2.42479507     -3.50506606     -0.04268471
H      -1.97616862      3.84724685     -2.18523525
H      -2.98786213      2.41073291     -2.46701557
H      -1.30271344      2.47772472     -3.08497214
