32
CC/C=C(\C)C1(CC)C(=O)NC(=O)NC1=O
C       3.94307903     -0.58287736     -0.92164670
C       3.25208094     -0.28846593      0.39977684
C       1.77870243     -0.58945818      0.32882128
C       0.75707122      0.28438314      0.17750227
C       1.00854617      1.76835458     -0.01315437
C      -0.74339493     -0.14502875      0.17305424
C      -0.99051477     -1.65570579      0.46748184
C      -2.46306624     -2.06771159      0.49007562
C      -1.28184201      0.13448324     -1.23002323
O      -0.89210465     -0.45732445     -2.23734901
N      -2.24384529      1.09761844     -1.35304766
C      -2.80520005      1.82256768     -0.35273644
O      -3.69362519      2.63869685     -0.57209360
N      -2.34689872      1.59234236      0.90351854
C      -1.43219983      0.65021160      1.28226876
O      -1.19689233      0.48847390      2.48030209
H       5.01744585     -0.39055366     -0.83746936
H       3.54801018      0.04945274     -1.72389971
H       3.80959508     -1.62964894     -1.21514993
H       3.44816004      0.74407422      0.70326355
H       3.69216676     -0.91525299      1.18499362
H       1.57083974     -1.65222117      0.43690446
H       0.75349909      2.31925056      0.89747108
H       2.04639570      2.00054784     -0.26423961
H       0.41031027      2.16690272     -0.83792478
H      -0.49138241     -2.27524546     -0.28908918
H      -0.55583630     -1.92671581      1.43865089
H      -3.01908650     -1.54014466      1.27053634
H      -2.95003373     -1.87834939     -0.47102920
H      -2.54352656     -3.14032788      0.69563766
H      -2.59267005      1.26834354     -2.28607017
H      -2.79378295      2.10932863      1.64813384
