10
O=S(=O)(O)C(F)(F)F.[Li]
O       1.08232893     -0.31911033      1.51435334
S       0.61762232     -0.50260845      0.15117134
O       0.84105895     -1.75813172     -0.53870781
O       1.40785279      0.63979410     -0.69229683
C      -1.13411642      0.08625901     -0.04932767
F      -1.28802776      1.36576135      0.40113162
F      -1.53944402      0.08003594     -1.35061600
F      -2.01813343     -0.68340351      0.64585794
Li      0.00000000      0.00000000      0.00000000
H       2.03085864      1.09140361     -0.08156593
