29
Cc1nc(=O)c(C#N)c(NCc2cccnc2)[nH]1
C       2.23881598      2.35946706     -0.64758582
C       2.30695742      0.95842904     -0.09694767
N       3.41999572      0.54954438      0.41818583
C       3.47658644     -0.72385239      0.94488642
O       4.52434071     -1.19728257      1.37375670
C       2.22003400     -1.53376368      1.00256559
C       2.27620735     -2.79987660      1.63809016
N       2.22341574     -3.85074080      2.13005984
C       1.09114250     -1.05000812      0.42886387
N      -0.12302970     -1.73836883      0.43032074
C      -1.15265276     -1.66784546     -0.60384829
C      -1.95780321     -0.40209865     -0.52120245
C      -2.46067369      0.08607767      0.68961357
C      -3.20065541      1.26450226      0.70840013
C      -3.42035923      1.91861029     -0.49122090
N      -2.95999344      1.47483410     -1.68053640
C      -2.25608468      0.32161149     -1.67163286
N       1.17567993      0.19523831     -0.14896721
H       1.75576204      2.34755800     -1.62873084
H       1.65069345      2.98261363      0.03204292
H       3.24135571      2.78440783     -0.74711884
H      -0.06703890     -2.67711920      0.82931320
H      -1.83776312     -2.51538604     -0.48251099
H      -0.68283944     -1.77672041     -1.58876691
H      -2.27070339     -0.44557754      1.61969018
H      -3.59674976      1.66189570      1.63648649
H      -3.99124147      2.84226616     -0.52971434
H      -1.92028122     -0.00512108     -2.65307499
H       0.29688241      0.63670545     -0.39041713
