26
C=C(C)C(=O)OCC1CCCO1
C       3.09228461      1.34866006     -0.63912516
C       2.92408204      0.11650157     -0.12880399
C       3.94310732     -0.96933279     -0.30442177
C       1.71409742     -0.27377302      0.65309875
O       1.55273901     -1.39334506      1.11498833
O       0.84023692      0.75733843      0.76309574
C      -0.35226549      0.48198832      1.51330257
C      -1.38717334     -0.28402265      0.69133996
C      -1.73844918      0.38300965     -0.62961607
C      -3.11263276     -0.18001266     -0.89262799
C      -3.71059783     -0.21748889      0.49803927
O      -2.62469556     -0.39721121      1.41977294
H       3.98335026      1.60590222     -1.20352026
H       2.35703363      2.13743411     -0.51191004
H       4.31100877     -1.31178664      0.66849484
H       3.50712772     -1.82311395     -0.83374806
H       4.80827988     -0.62867499     -0.88334818
H      -0.11681617     -0.04782608      2.44515950
H      -0.76708532      1.44769947      1.82577107
H      -1.03284862     -1.30320422      0.49526367
H      -1.02059397      0.16171271     -1.42434095
H      -1.80233038      1.47180882     -0.51436855
H      -3.02719721     -1.19827325     -1.29031408
H      -3.70424184      0.41221012     -1.59554937
H      -4.43586495     -1.02676248      0.62087216
H      -4.20055495      0.73056241      0.74374339
