10
N#CN=C(N)N
N       2.67721392      0.66683798      1.34507123
C       1.81434688     -0.03212517      1.01188544
N       0.79420171     -0.80118350      0.62079164
C      -0.16723057     -0.24420563     -0.02917050
N      -0.33615234      1.04689310     -0.41137006
N      -1.22487127     -0.97658933     -0.45681181
H       0.28609226      1.72071165      0.02622254
H      -1.30051815      1.35597024     -0.34739322
H      -1.48912589     -0.76400327     -1.41233059
H      -1.05395656     -1.97230606     -0.34689468
