40
CCCCCCCCCCN(C)C
C       6.57535512      1.22848362     -0.31333378
C       5.17005741      1.02886642      0.23143784
C       4.44701320     -0.10964179     -0.48789562
C       3.03317668     -0.30765413      0.06367404
C       2.31047682     -1.44532521     -0.66103951
C       0.93268352     -1.76374994     -0.07330211
C      -0.08012434     -0.62992481     -0.24756606
C      -1.46643843     -1.04436093      0.25156125
C      -2.48158115      0.09010522      0.08316132
C      -3.87037961     -0.33302246      0.58139653
N      -4.84896631      0.76789624      0.56177511
C      -5.19277378      1.17692983     -0.80164220
C      -6.06479756      0.36755156      1.27585233
H       6.55131824      1.47681826     -1.37920821
H       7.07394225      2.04712290      0.21501378
H       7.17825394      0.32391669     -0.18446792
H       4.60434922      1.96081554      0.11677785
H       5.22764947      0.81412219      1.30487369
H       5.01983411     -1.03802983     -0.37374865
H       4.39505270      0.10817617     -1.56165402
H       2.47167826      0.62642424     -0.04889683
H       3.08564486     -0.52941940      1.13637662
H       2.20872791     -1.20120301     -1.72548776
H       2.92388158     -2.35313341     -0.60294235
H       1.03462953     -2.00942729      0.99076788
H       0.55025436     -2.66438320     -0.56965271
H       0.24867975      0.25641497      0.30625174
H      -0.13989816     -0.34957345     -1.30606758
H      -1.40471036     -1.32933674      1.30890139
H      -1.80848601     -1.92696152     -0.30253244
H      -2.52264057      0.37038716     -0.97526384
H      -2.14116166      0.97056668      0.64221100
H      -4.23382505     -1.18817493     -0.00358583
H      -3.75454160     -0.68258112      1.61585417
H      -4.32758270      1.60108339     -1.32013263
H      -5.58346414      0.34392878     -1.39715012
H      -5.94987244      1.96960714     -0.78549961
H      -6.55226949     -0.49651959      0.80973997
H      -5.83574698      0.11542426      2.31735506
H      -6.78339859      1.19428247      1.30808821
