9
S=c1[nH]sc(=S)[nH]1
S      -1.94459513     -1.73037464      0.00709517
C      -0.82345821     -0.51530458      0.01557387
N      -1.12919766      0.82069892      0.10964397
S       0.25192422      1.80789166      0.09062821
C       1.30809395      0.40525101     -0.04863201
S       2.95888143      0.40078815     -0.13982554
N       0.52897079     -0.71668870     -0.07056710
H      -2.07795995      1.16848873      0.18201100
H       0.92734055     -1.64075055     -0.14592756
