47
COCCOc1ccccc1S(=O)(=O)NC(=O)Nc1nc(OC)nc(OC)n1
C       1.94288275      2.46073846     -2.15752567
O       1.59221907      1.08425630     -2.05772191
C       2.74970024      0.28977036     -1.77443363
C       2.33998077     -1.12739980     -1.38924985
O       1.63089979     -1.09778321     -0.13887129
C       2.22540855     -1.79005948      0.87938797
C       2.60756861     -3.12666396      0.72042885
C       3.17170730     -3.83041412      1.78763163
C       3.33448699     -3.21533952      3.02712765
C       2.92114915     -1.89652569      3.20733798
C       2.35936013     -1.18944847      2.13540414
S       1.80677657      0.47575714      2.40731587
O       2.53759343      1.32747298      1.49020215
O       1.84801548      0.75019553      3.82948956
N       0.21884592      0.46878538      1.92862255
C      -0.73999612     -0.41520369      2.39853835
O      -0.52200142     -1.19872666      3.31585535
N      -1.96199284     -0.43582147      1.80524108
C      -2.44855352      0.32749875      0.76142889
N      -3.68343926      0.02040810      0.38651625
C      -4.15304108      0.74896719     -0.62189346
O      -5.42614318      0.52071512     -1.09827395
C      -6.06809538     -0.59232800     -0.48951021
N      -3.50568432      1.72122610     -1.24314619
C      -2.28154696      1.93167625     -0.78282941
O      -1.51864028      2.94467555     -1.32055959
C      -1.99369440      3.37220377     -2.59288318
N      -1.70023832      1.27546871      0.21557887
H       1.05292837      3.03057963     -2.43785671
H       2.70882398      2.60931200     -2.92579472
H       2.30377657      2.83334710     -1.19374399
H       3.37289722      0.25834150     -2.67503653
H       3.32264080      0.74296999     -0.95889074
H       3.24119187     -1.74883562     -1.35519349
H       1.65747555     -1.54680134     -2.13624904
H       2.44707674     -3.63934516     -0.22352467
H       3.46385016     -4.86879303      1.65690465
H       3.76253692     -3.76737962      3.86077565
H       3.02122943     -1.43264616      4.18808150
H       0.03684515      0.98809587      1.07002133
H      -2.60095298     -1.12213134      2.17337251
H      -5.49973604     -1.51614674     -0.64873519
H      -6.23989887     -0.41578779      0.57882849
H      -7.04537486     -0.71834227     -0.96749315
H      -2.95816809      3.88455873     -2.50321469
H      -2.05890220      2.53498988     -3.29850866
H      -1.27176738      4.08991278     -2.99477590
