39
CCCc1c2c(cc3c(=O)cc(C(=O)O)oc13)CCCC2
C       0.89330977      3.88053936     -0.93662652
C       0.55064590      2.40153366     -1.02032571
C       0.34250319      1.79736347      0.37013623
C       0.00378530      0.31818543      0.29461158
C      -1.33844052     -0.14477897      0.22065675
C      -1.59082748     -1.52966535      0.07305839
C      -0.52346951     -2.43855424      0.05361474
C       0.78937563     -1.98112650      0.13829917
C       1.91055690     -2.93346347      0.09971923
O       1.74267595     -4.14235454      0.01075001
C       3.26240409     -2.36560661      0.17130720
C       3.39764893     -1.03713168      0.26652424
C       4.77787787     -0.50246365      0.33253795
O       5.81041654     -1.14875178      0.31268646
O       4.79756697      0.83942829      0.42101209
O       2.34603442     -0.13952325      0.30653145
C       1.05735218     -0.61986006      0.24809752
C      -2.99272444     -2.08662884     -0.02136588
C      -4.02524571     -1.04276002     -0.42783087
C      -3.87144154      0.19356142      0.44041106
C      -2.49950548      0.83322544      0.23053212
H       1.81514902      4.03778776     -0.36757256
H       1.03891461      4.29319387     -1.93982409
H       0.08886877      4.44261174     -0.45160361
H      -0.35322344      2.27711807     -1.62806917
H       1.35823373      1.87716980     -1.54519874
H      -0.43296330      2.34919582      0.90984848
H       1.24445539      1.93979943      0.97925751
H      -0.71600016     -3.50676946     -0.03692299
H       4.09407201     -3.05895614      0.14111587
H       5.75033786      1.06368350      0.45691536
H      -3.02023969     -2.90598066     -0.74992129
H      -3.25942465     -2.50522123      0.95725861
H      -5.03311649     -1.45882406     -0.32034202
H      -3.89659432     -0.77386949     -1.48382803
H      -3.99526210     -0.08129689      1.49581036
H      -4.65592799      0.92217521      0.20677750
H      -2.36795383      1.56937096      1.03003944
H      -2.49982437      1.36764368     -0.72724252
