25
CCOC(=S)SC(CC(N)=O)C(=O)O
C       3.68836302      1.78737444     -1.10305191
C       2.66222149      0.92224035     -0.39628787
O       2.46094643     -0.26039466     -1.19005145
C       1.81571122     -1.34566997     -0.68772822
S       2.04457277     -2.75586494     -1.55716014
S       0.88134389     -1.31531646      0.79649337
C      -0.62096356     -0.42328861      0.24055236
C      -1.60685581     -0.37130109      1.41017319
C      -2.80285059      0.48391612      1.06782666
N      -3.80665580      0.45081756      1.98969064
O      -2.88071262      1.19018877      0.07134071
C      -1.21368903     -1.09327375     -0.98523971
O      -0.93708861     -0.81993690     -2.14304110
O      -2.04923191     -2.11589268     -0.71745180
H       4.63290660      1.24603361     -1.22092323
H       3.34421214      2.04997973     -2.10890035
H       3.87576844      2.70727287     -0.54222303
H       1.72083688      1.47176625     -0.31390873
H       3.03306852      0.65397475      0.59831709
H      -0.34550517      0.59712694     -0.04502366
H      -1.13382135      0.08203828      2.29081283
H      -1.96071342     -1.37090184      1.69121283
H      -3.86429082     -0.26712591      2.69947297
H      -4.65422579      0.95651897      1.76216545
H      -2.28334693     -2.46028181     -1.60706691
