46
CCCCCOC(=O)C(C)c1ccc2cc(OC)ccc2c1
C       7.31299581      0.17845294     -0.11126217
C       6.52570882      0.48824835      1.15293404
C       5.40724578     -0.51666356      1.43907423
C       4.29802051     -0.50302569      0.38827137
C       3.14347952     -1.42160917      0.78321028
O       2.14327282     -1.42556699     -0.24798040
C       1.20663808     -0.43316842     -0.17060011
O       1.19338944      0.44622376      0.68122410
C       0.22993801     -0.55117725     -1.33454032
C       0.60360178      0.47592579     -2.40418222
C      -1.22458379     -0.43252183     -0.90490150
C      -2.09176408     -1.52010265     -1.07283273
C      -3.43430335     -1.42857860     -0.69356425
C      -3.94682953     -0.24856194     -0.13330510
C      -5.29707745     -0.14422413      0.25347174
C      -5.79185202      1.03571031      0.81310454
O      -7.07771744      1.25563613      1.22533517
C      -7.99586216      0.18039480      1.07537185
C      -4.93212746      2.11967127      0.98860052
C      -3.59067455      2.03279401      0.61023427
C      -3.08381459      0.85394742      0.04570894
C      -1.73644197      0.74877528     -0.34252769
H       7.71785745     -0.83863731     -0.08394057
H       8.15239892      0.87491837     -0.21007563
H       6.69207688      0.28059368     -1.00588130
H       7.21816273      0.48824649      2.00317550
H       6.10900841      1.50027517      1.08432507
H       5.82988636     -1.52631261      1.51813522
H       4.97539734     -0.27726515      2.41921521
H       3.92607397      0.51908578      0.24770318
H       4.68434211     -0.82076593     -0.58767610
H       3.50077804     -2.45293922      0.88146304
H       2.70975932     -1.14012683      1.74988942
H       0.36722994     -1.54714781     -1.77834065
H      -0.06783333      0.40796082     -3.26715372
H       0.55867343      1.50225031     -2.02156507
H       1.62805435      0.30890338     -2.75700413
H      -1.73406617     -2.45322860     -1.50413740
H      -4.07938309     -2.29250630     -0.83981865
H      -5.94367520     -1.00313945      0.10683954
H      -8.12010312     -0.08762025      0.02100847
H      -7.69052816     -0.68611575      1.67167165
H      -8.96796699      0.51617729      1.45007215
H      -5.30869543      3.04145935      1.42546872
H      -2.94441836      2.89428616      0.76254019
H      -1.07427157      1.60106855     -0.19105339
