26
Cc1c(O)c(=O)ccn1-c1ccccc1
C      -0.75956419     -2.07548104      0.18334625
C      -1.31879609     -0.67330172      0.08046356
C      -2.65654754     -0.49867498     -0.00924137
O      -3.56491498     -1.54007833     -0.06976460
C      -3.21189384      0.88853613     -0.03542246
O      -4.42440171      1.06158613     -0.12950200
C      -2.26906043      2.01631984      0.06520735
C      -0.96791827      1.72136141      0.14856268
N      -0.43829012      0.43377333      0.14498207
C       0.98191801      0.28449525      0.17665268
C       1.67173648     -0.29297196     -0.90023606
C       3.06235300     -0.42021574     -0.87122131
C       3.78114547      0.03371456      0.23300378
C       3.11239316      0.61840228      1.30670305
C       1.72198409      0.74694590      1.27695923
H      -0.05228560     -2.15368923      1.01597710
H      -1.53386662     -2.82694865      0.36996466
H      -0.25421866     -2.36063615     -0.74410134
H      -4.44134337     -1.10311766     -0.12807385
H      -2.66225142      3.02206230      0.05584844
H      -0.23032773      2.51866622      0.20079339
H       1.12491930     -0.63184801     -1.77660954
H       3.58335368     -0.86946337     -1.71272740
H       4.86340604     -0.06629366      0.25566497
H       3.67187609      0.97221921      2.16874798
H       1.21059526      1.19463794      2.12551288
