16
O=C(Cl)c1ccc(C(=O)Cl)cc1
O      -3.33776515      1.30187172     -0.57868330
C      -2.89936838      0.21258948     -0.21152150
Cl     -3.92917405     -1.15037804      0.16942638
C      -1.40851938      0.08076050     -0.09561161
C      -0.79404262     -1.10919460      0.31220048
C       0.60191565     -1.18702088      0.40625981
C       1.40851947     -0.08075996      0.09561375
C       2.89936866     -0.21258968      0.21152160
O       3.33776617     -1.30187486      0.57867374
Cl      3.92917321      1.15038212     -0.16941356
C       0.79404285      1.10919350     -0.31220386
C      -0.60191576      1.18702233     -0.40625424
H      -1.37227847     -1.99493434      0.56427709
H       1.05604459     -2.12511046      0.72624885
H       1.37227780      1.99493012     -0.56429377
H      -1.05604458      2.12511305     -0.72623987
