21
O=C1C2(Cl)C3(Cl)C4(Cl)C(Cl)(Cl)C5(Cl)C3(Cl)C1(Cl)C5(Cl)C24Cl
O       3.41919674     -0.16428594      0.63425071
C       2.22186572     -0.10675650      0.41214946
C       1.07738717      0.61894864      1.19324255
Cl      1.59398269      1.50248448      2.63442992
C       0.18202330      1.34348663      0.09040800
Cl      0.29893288      3.09915537     -0.08885174
C      -1.08694819      0.70013000      0.75797943
Cl     -1.98848518      1.66979132      1.96274697
C      -1.94443784      0.09342655     -0.36068752
Cl     -3.14550722     -1.05227641      0.26068988
Cl     -2.73186887      1.33467316     -1.35092588
C      -0.80360519     -0.60929245     -1.10867156
Cl     -1.30003108     -1.51178428     -2.57275719
C       0.38343728      0.41268536     -1.23649867
Cl      0.70764242      1.21037151     -2.78141369
C       1.37070588     -0.73657500     -0.73912851
Cl      2.28454634     -1.68884066     -1.91497427
C       0.07695109     -1.35592985     -0.04236892
Cl     -0.04130749     -3.11153375      0.13664080
C      -0.12446297     -0.42512853      1.28453770
Cl     -0.45001750     -1.22274965      2.82920255
