19
CN1COCN=C1N[N+](=O)[O-]
C       0.42033110      1.95093887     -0.01474986
N      -0.15497888      0.63068577      0.18896408
C      -1.49010888      0.61452421      0.74106092
O      -2.34556520     -0.12236831     -0.10634495
C      -1.81765570     -1.43175006     -0.24678717
N      -0.43140299     -1.54845536     -0.68528366
C       0.29944220     -0.51001941     -0.42520960
N       1.58902413     -0.53717762     -0.87769796
N       2.51663906     -0.80489736      0.07539625
O       2.47830562     -0.19796379      1.14798532
O       3.36485485     -1.62357917     -0.28479825
H       1.50129180      1.92469128     -0.17814353
H       0.24682548      2.58657669      0.86059261
H      -0.04017757      2.42915259     -0.88566342
H      -1.48381714      0.17511360      1.74640556
H      -1.90723913      1.62339930      0.83365076
H      -1.95038657     -1.97705590      0.69617027
H      -2.44692383     -1.94057117     -0.98453286
H       1.65154164     -1.24124417     -1.60101449
