27
O=c1[nH]c(CN2CCCC2)c(Cl)c(=O)[nH]1
O       3.00100152      0.99798450      2.40429193
C       2.83177463      0.49678709      1.29894308
N       1.64549620     -0.05817906      0.92061561
C       1.38754078     -0.60044053     -0.32337604
C      -0.01725451     -1.14464040     -0.50867037
N      -1.02298273     -0.35096988      0.21743157
C      -2.32333487     -1.02732812      0.25503646
C      -3.27560493      0.08033898      0.67827798
C      -2.60449828      1.37371418      0.22993511
C      -1.30195657      0.93918523     -0.42546523
C       2.35184413     -0.60703303     -1.25888579
Cl      2.15477261     -1.26097404     -2.83851713
C       3.68344342     -0.02445751     -0.91591017
O       4.61426172      0.02912220     -1.71461535
N       3.81881721      0.46183186      0.35775586
H       0.87470250     -0.01408906      1.58496622
H      -0.01301519     -2.16238843     -0.09536983
H      -0.29231443     -1.23259960     -1.56587065
H      -2.61138007     -1.40723448     -0.73372332
H      -2.33379315     -1.85985207      0.96554527
H      -3.40541812      0.08785609      1.76688264
H      -4.26342883     -0.04350980      0.22311931
H      -3.23455211      1.93826952     -0.46478279
H      -2.40879564      2.01091496      1.10037756
H      -1.45130692      0.82983472     -1.50738278
H      -0.50855568      1.67373341     -0.25603290
H       4.70453731      0.87412326      0.60542375
