33
CC=CCC1(CC=CC)C(=O)NC(=O)NC1=O
C       4.68424350     -0.71366366      0.37225028
C       3.31911103     -1.01585486     -0.15398007
C       2.18497402     -0.79157944      0.52670742
C       0.80644413     -1.11892466      0.00081740
C      -0.02757122      0.11263274     -0.42365217
C      -1.41654605     -0.31438928     -0.98204827
C      -2.31523242     -1.03931784     -0.01426539
C      -3.46869492     -0.53605066      0.45192636
C      -4.36333068     -1.25547835      1.40959125
C       0.65056545      0.83069937     -1.58160193
O       1.27876067      0.25740705     -2.46974630
N       0.44037021      2.18137205     -1.66340465
C      -0.02843735      2.97348553     -0.66197627
O       0.09535750      4.19309973     -0.69826680
N      -0.57090944      2.34657050      0.41408741
C      -0.25231923      1.05932850      0.74675239
O      -0.19389030      0.72911638      1.92893550
H       5.18652329      0.00226134     -0.28542817
H       5.28196485     -1.62961197      0.40508790
H       4.65462380     -0.28858364      1.38044952
H       3.27432862     -1.43757564     -1.15706444
H       2.23578093     -0.37818215      1.53384979
H       0.29352976     -1.67564244      0.79517052
H       0.89295536     -1.81621507     -0.84357541
H      -1.27281452     -0.97230551     -1.85059880
H      -1.94670779      0.56463859     -1.37561069
H      -2.00323688     -2.03384354      0.30116645
H      -3.80244126      0.45118376      0.14008591
H      -4.48021403     -0.66573681      2.32389042
H      -3.96993428     -2.23888585      1.68559762
H      -5.35164757     -1.39632374      0.96155835
H       0.91012224      2.65775454     -2.42145453
H      -0.72572745      2.95861501      1.20474939
