54
O=C(NCc1ccc(OC(F)(F)F)cc1)C1c2cccc(O)c2C(=O)N1CCc1ccccn1
O      -0.65005967     -1.83860732     -1.81854749
C      -0.41245414     -1.65902860     -0.62470560
N       0.83995256     -1.85607048     -0.07276687
C       2.02531477     -1.90569170     -0.89367287
C       2.58553402     -0.51498024     -1.06616741
C       2.07464685      0.33497864     -2.05829731
C       2.54347286      1.64362656     -2.17898812
C       3.53629001      2.11432772     -1.32025348
O       3.91177367      3.41806795     -1.47647076
C       5.32068849      3.58767691     -1.62041381
F       5.55259039      4.84061534     -2.07341495
F       5.84235472      2.71346625     -2.51537114
F       5.95300661      3.44994050     -0.42971192
C       4.03329350      1.28833584     -0.31146900
C       3.56301970     -0.02253352     -0.18959787
C      -1.51428513     -1.30536719      0.39340141
C      -2.20465237     -2.52822146      0.93101954
C      -2.86433670     -3.54840184      0.26455207
C      -3.43820156     -4.57576049      1.02696009
C      -3.35401813     -4.57249646      2.43295934
C      -2.69516318     -3.53995554      3.09041878
O      -2.62832822     -3.55100546      4.45038713
C      -2.13373447     -2.54078391      2.32246418
C      -1.39580368     -1.35944375      2.76219505
O      -1.20609586     -1.08354920      3.93312090
N      -0.99177071     -0.68041922      1.62756909
C      -0.39595689      0.65185021      1.66254715
C      -1.40166998      1.80413155      1.60011387
C      -1.77242267      2.17488608      0.18535649
C      -0.87120091      2.86157651     -0.62898676
C      -1.24027540      3.16208494     -1.93839122
C      -2.49300125      2.77579381     -2.39922644
C      -3.32861421      2.10026866     -1.52627443
N      -2.99334742      1.78693330     -0.25372249
H       0.94732560     -1.60739291      0.90474000
H       1.80314014     -2.35544682     -1.86864988
H       2.75141491     -2.55328778     -0.39004235
H       1.29087252     -0.01446234     -2.72980432
H       2.13002305      2.29121868     -2.94978105
H       4.76915324      1.64679629      0.40385659
H       3.95543260     -0.65348078      0.60653046
H      -2.24387985     -0.63640892     -0.06415300
H      -2.93644732     -3.55888217     -0.82054949
H      -3.95947801     -5.38988218      0.52660166
H      -3.80573297     -5.37632247      3.00706088
H      -2.15079895     -2.74241440      4.73324133
H       0.35777933      0.72190440      0.87211518
H       0.13764636      0.72863171      2.61858255
H      -2.30537182      1.56026076      2.17225342
H      -0.96281483      2.69295749      2.07169370
H       0.10410313      3.16187683     -0.25660257
H      -0.55427054      3.69276344     -2.59365857
H      -2.80601470      2.98780686     -3.41388850
H      -4.31862749      1.77751989     -1.83802785
