55
CC12C=CC(=O)C=C1CCC1C3CC(O)C(O)(C(=O)CO)C3(C)CC(O)C12F
C       2.21325781      1.39941099      1.47040898
C       2.41947847      0.80894081      0.05471574
C       3.09469742      1.92049981     -0.75215971
C       4.31065919      1.85580339     -1.31064496
C       5.14146671      0.64736100     -1.18075603
O       6.25188105      0.57649166     -1.69150601
C       4.57926491     -0.47205902     -0.40162471
C       3.35749598     -0.41024235      0.15849133
C       2.80691883     -1.61144086      0.87734514
C       1.51768905     -2.06224412      0.20697560
C       0.46976966     -0.92924841      0.13913103
C      -0.83643452     -1.48675617     -0.49396286
C      -1.57532868     -2.41726033      0.50893472
C      -2.98809661     -1.85994301      0.67337625
O      -3.51394088     -2.03602453      1.98253912
C      -2.90906868     -0.37660335      0.24224061
O      -4.20581120      0.05900574     -0.17047108
C      -2.46615222      0.51025610      1.42879544
O      -1.72227600      0.06916179      2.31123968
C      -3.01337158      1.94172909      1.47207589
O      -2.29009620      2.77498390      2.36215095
C      -1.90305940     -0.44913754     -0.95249323
C      -2.63446962     -1.02108509     -2.21058103
C      -1.30553258      0.88914593     -1.41075897
C      -0.07698286      1.39631252     -0.65401521
O       0.33048228      2.58112062     -1.34310311
C       1.04167714      0.32522119     -0.58416970
F       1.30341564     -0.04990904     -1.88510499
H       3.17412199      1.63799083      1.94480916
H       1.63316113      2.32932014      1.44065404
H       1.68763091      0.71609088      2.14382095
H       2.56755594      2.86752912     -0.84022768
H       4.74602496      2.68421377     -1.85601752
H       5.21372087     -1.34882378     -0.33540357
H       3.52006445     -2.44475689      0.87114058
H       2.62742951     -1.37177267      1.93117883
H       1.12121425     -2.91963167      0.76274502
H       1.73921420     -2.42308479     -0.80637284
H       0.25178238     -0.63934290      1.17096264
H      -0.53650981     -2.08681578     -1.36451122
H      -1.62297170     -3.43859772      0.11275712
H      -1.06577919     -2.48902249      1.47600572
H      -3.67461906     -2.40621982      0.01689495
H      -2.84722435     -1.69592803      2.61626214
H      -4.85298200     -0.37236060      0.42368948
H      -2.96941041      2.39396618      0.48029499
H      -4.05400195      1.89249299      1.80783002
H      -2.83901078      3.55806424      2.54082418
H      -3.41311837     -0.33535601     -2.56338781
H      -1.93035746     -1.16709686     -3.03900870
H      -3.10132459     -1.99298863     -2.02724828
H      -1.00672000      0.80580824     -2.46675372
H      -2.07979626      1.66630861     -1.42784990
H      -0.35677306      1.70775855      0.35418554
H       0.67114530      2.29876437     -2.21434302
