39
c1ccc(CNC23OC4C5C6CC(C7C6C4C72)C53)cc1
C       5.78553117      0.04390810     -0.24538653
C       4.96115537      1.11916414     -0.57183484
C       3.61386434      1.10160421     -0.20811945
C       3.07862744      0.00984146      0.49116185
C       1.61578134     -0.01113009      0.87384161
N       0.78495548     -0.27124500     -0.29924058
C      -0.59656230     -0.48774675      0.03703330
O      -0.83781903     -1.65810195      0.82679619
C      -2.27399938     -1.60489992      0.82841729
C      -2.57744792     -0.19609796      1.33738677
C      -3.77224838      0.34002975      0.53757047
C      -3.41219188      1.80497932      0.29885927
C      -2.03779972      1.50378909     -0.29475282
C      -2.35797605      0.50054264     -1.41662597
C      -3.55482413     -0.30100743     -0.84365885
C      -2.64169258     -1.52211068     -0.65259677
C      -1.45067347     -0.72559490     -1.22344709
C      -1.38232659      0.61025615      0.76801758
C       3.91531640     -1.07065300      0.80492664
C       5.26295872     -1.05115476      0.44071832
H       6.83409246      0.05716221     -0.53017064
H       5.36506744      1.96987435     -1.11392907
H       2.97388758      1.93887401     -0.47805367
H       1.37106487      0.95952295      1.32058612
H       1.45854301     -0.77015655      1.65013191
H       1.12767765     -1.13103851     -0.72600503
H      -2.74606194     -2.42152250      1.37829836
H      -2.65111149     -0.09844255      2.42340243
H      -4.75009796      0.13452008      0.97588251
H      -3.36131226      2.38960205      1.22241978
H      -4.08129149      2.28739138     -0.42093214
H      -1.43711170      2.35639859     -0.61527422
H      -2.48424900      0.88270720     -2.43132462
H      -4.41516787     -0.40901298     -1.50671356
H      -2.89804182     -2.44078711     -1.18246482
H      -0.99130596     -1.15871737     -2.11512946
H      -0.86195721      1.14608920      1.56537301
H       3.52033544     -1.93466873      1.33463580
H       5.90441143     -1.89216816      0.69025577
