29
Cc1ccc(C(=O)c2csc(S(N)(=O)=O)c2)cc1
C       4.80436135     -1.22141996     -0.32840294
C       3.54791428     -0.40473387     -0.24414632
C       3.45388966      0.65613044      0.66544868
C       2.29826178      1.43795365      0.72259605
C       1.22317516      1.16154223     -0.12872663
C       0.01707106      2.02281850     -0.04879327
O       0.17067501      3.23605749      0.06804737
C      -1.31531246      1.41211377     -0.09602497
C      -2.44581404      2.15932115     -0.38148836
S      -3.88249078      1.23460738     -0.37720050
C      -3.03763725     -0.18682758      0.04409898
S      -4.01110236     -1.65162899      0.24229249
N      -5.27568824     -1.32279631      1.29561452
O      -4.60430811     -1.92899625     -1.04396098
O      -3.15757963     -2.59752037      0.92307313
C      -1.68149669      0.04843367      0.17099492
C       1.32539017      0.12843741     -1.06714216
C       2.48336057     -0.65146622     -1.12067301
H       5.29216705     -1.28913616      0.64968719
H       4.58407267     -2.24395570     -0.65258272
H       5.49949819     -0.76594414     -1.04031569
H       4.28310967      0.88376081      1.33239968
H       2.24036929      2.26368091      1.42908792
H      -2.48891123      3.21904722     -0.60223227
H      -5.25114769     -1.98798507      2.06950902
H      -6.15763011     -1.35388198      0.78190960
H      -0.99219301     -0.73937409      0.45540468
H       0.52365563     -0.06855340     -1.77448534
H       2.55434009     -1.44968454     -1.85726802
