14
Cc1cccnc1
C       2.07452499      0.04677064     -0.19182384
C       0.59171909      0.08828827     -0.00523108
C      -0.20781825     -1.02163210     -0.28383590
C      -1.58828138     -0.93286504     -0.12978504
C      -2.12574311      0.27256570      0.28953314
N      -1.38785934      1.37120133      0.55470346
C      -0.04984534      1.25532294      0.39657614
H       2.57599786      0.72041346      0.51101352
H       2.46318135     -0.96059507     -0.00911691
H       2.33301882      0.34479778     -1.21256148
H       0.23716390     -1.95474775     -0.61937466
H      -2.22973677     -1.78233368     -0.33459774
H      -3.19687895      0.39101474      0.42439091
H       0.51055714      2.16179878      0.61010947
