39
CCCC(=O)OCn1cc(F)c(=O)n(C(=O)c2ccccc2)c1=O
C       6.05091581      2.40390954     -0.36103657
C       5.21911636      1.89378599      0.80426973
C       4.00799458      1.09955488      0.32227733
C       3.17299482      0.59057273      1.47329195
O       3.41648865      0.75435922      2.65940825
O       2.10132489     -0.09527772      0.98921110
C       1.23245356     -0.56343798      2.01936554
N       0.17970519     -1.34876207      1.38244836
C       0.46674544     -2.62499825      0.94934912
C      -0.43724708     -3.35670233      0.30572766
F      -0.16387664     -4.59467441     -0.14527535
C      -1.78108433     -2.81141973      0.03236246
O      -2.56241146     -3.43841817     -0.68056533
N      -2.01307100     -1.54769768      0.53631362
C      -3.32653191     -1.17681084      0.67106842
O      -4.01438723     -1.51907957      1.63202375
C      -3.90175981     -0.30977364     -0.40546476
C      -3.17435183      0.06941513     -1.54294244
C      -3.76562700      0.88001696     -2.51628476
C      -5.08105294      1.31517398     -2.36217898
C      -5.81120437      0.94178197     -1.23591206
C      -5.22486395      0.13208474     -0.26124904
C      -1.06882676     -0.75584461      1.17740790
O      -1.28290577      0.41763656      1.48553197
H       5.46107886      3.06448546     -1.00450867
H       6.42392700      1.57403158     -0.96970723
H       6.91271850      2.96929553      0.00712873
H       4.89044484      2.74387342      1.41413811
H       5.84588333      1.26594023      1.44891813
H       3.37368054      1.73653936     -0.30433573
H       4.34039588      0.23702973     -0.26611387
H       1.77325362     -1.21204218      2.72038369
H       0.80830611      0.28549600      2.56684372
H       1.46423813     -3.01186730      1.13536868
H      -2.14958534     -0.25206881     -1.69938448
H      -3.19970007      1.17203988     -3.39776693
H      -5.53846298      1.94525512     -3.12120767
H      -6.83757913      1.27926190     -1.11442215
H      -5.80713649     -0.15266459      0.61350953
