10
Clc1cc(Cl)ncn1
Cl     -2.66234577     -1.16586674      0.06704581
C      -1.13802116     -0.37934891      0.01878908
C       0.02077344     -1.10194003      0.09160392
C       1.15147620     -0.33437949      0.04054272
Cl      2.70431625     -1.06045723      0.11802326
N       1.17018121      1.00393022     -0.07022310
C      -0.02994216      1.58830428     -0.13203419
N      -1.20715233      0.95723580     -0.09280813
H       0.04103629     -2.17683639      0.18095922
H      -0.05032198      2.66935850     -0.22189859
