28
CCc1nc2[nH]c(=O)[nH]c(=O)c2nc1CC
C      -1.61119544      2.90736371      0.02697185
C      -1.67711390      1.60219362      0.80546976
C      -0.57423875      0.65859284      0.40212996
N       0.59409854      0.80079516      1.09430816
C       1.60348437     -0.01982867      0.74111108
N       2.79997069      0.10449646      1.43391530
C       3.89200953     -0.66240948      1.17545141
O       4.93799951     -0.53351025      1.80177196
N       3.75962798     -1.58671216      0.17744765
C       2.63113160     -1.80975837     -0.58331712
O       2.61727238     -2.66842399     -1.45818264
C       1.46386163     -0.95374363     -0.27140720
N       0.31642857     -1.11016184     -0.97565397
C      -0.70874842     -0.28463779     -0.63245159
C      -1.98251926     -0.48483648     -1.41065259
C      -2.87687670     -1.53113128     -0.76311662
H      -2.41228108      3.58035135      0.34861025
H      -0.65514644      3.41685883      0.18935319
H      -1.72096040      2.73910418     -1.04929830
H      -2.65973408      1.13513178      0.68686725
H      -1.57905605      1.82106316      1.87617314
H       2.85436260      0.80018691      2.16425570
H       4.56522401     -2.16171163     -0.02217682
H      -1.72721902     -0.81381985     -2.42581012
H      -2.52363005      0.45871299     -1.53177737
H      -3.78751018     -1.66857353     -1.35468950
H      -2.36803362     -2.49881082     -0.69483198
H      -3.17120800     -1.23678124      0.24952917
