22
Clc1ccc(-c2ccccc2Cl)c(Cl)c1
Cl     -5.22710734      0.27394856     -0.25088204
C      -3.51047410      0.18782337     -0.17716372
C      -2.89205750     -0.27021734      0.98282882
C      -1.49812004     -0.33945868      1.04446610
C      -0.70527998      0.04647044     -0.05225798
C       0.75997028     -0.04630093      0.05541778
C       1.48095516      1.04511130      0.57426264
C       2.87201227      0.99829143      0.69372251
C       3.56775514     -0.14094246      0.29833566
C       2.87336694     -1.23487650     -0.21633837
C       1.48035415     -1.19022672     -0.33709788
Cl      0.68587510     -2.58910638     -0.97595437
C      -1.35607531      0.50859968     -1.21327265
Cl     -0.46775623      1.01677006     -2.60948305
C      -2.75103373      0.57847782     -1.27587697
H      -3.48552217     -0.57751170      1.84035590
H      -1.02684668     -0.70522686      1.95573152
H       0.95602300      1.94740092      0.88403872
H       3.41138640      1.85428135      1.09258883
H       4.65065844     -0.17729775      0.38850700
H       3.42273790     -2.12114917     -0.52399310
H      -3.24082172      0.93513957     -2.17793535
