35
CCOC(=O)[C@H](Cc1ccc(O)cc1)NC(C)=O
C      -2.26332008     -3.84719482     -1.69033376
C      -2.23985736     -2.81315492     -0.58188074
O      -1.70783995     -1.59588809     -1.11855845
C      -1.60490109     -0.58238634     -0.21192074
O      -1.92943847     -0.66247139      0.96844774
C      -1.04356508      0.67954942     -0.87144336
C       0.39061115      0.46484765     -1.38674219
C       1.41465257      0.19145894     -0.30582973
C       2.10696528      1.25237994      0.29591855
C       3.03599285      1.00756281      1.30750498
C       3.27749499     -0.29669799      1.71906213
O       4.19151228     -0.49050177      2.71198011
C       2.60721433     -1.36446070      1.13187863
C       1.67752069     -1.11951013      0.11836284
N      -1.15777994      1.79572881      0.07021869
C      -1.12468659      3.10262936     -0.33588778
C      -1.21302713      4.10566821      0.78149824
O      -1.01405954      3.43779350     -1.51056189
H      -2.66340229     -4.79837480     -1.32836248
H      -2.87763860     -3.50066867     -2.52795546
H      -1.25469776     -4.01393319     -2.08284429
H      -3.25730778     -2.64017105     -0.21400413
H      -1.60431526     -3.16554111      0.23832039
H      -1.69776027      0.91590211     -1.72039274
H       0.41102744     -0.36490015     -2.10537442
H       0.71412490      1.34602065     -1.95597930
H       1.92888551      2.27750544     -0.02267189
H       3.57086504      1.83164466      1.77078387
H       4.25702808     -1.44275538      2.89012312
H       2.79331915     -2.38651331      1.44580748
H       1.16267530     -1.96175313     -0.33865761
H      -1.17960027      1.56058960      1.05825814
H      -0.23995578      4.58798705      0.90580533
H      -1.96848754      4.85514090      0.53018980
H      -1.49824875      3.63446792      1.72615605
