38
CCC(CC)CC1(CCO)C(=O)NC(=S)NC1=O
C      -3.44275642     -1.49755182     -0.00178656
C      -2.75238920     -0.39121367     -0.78871571
C      -1.45608786      0.16243856     -0.14517343
C      -1.70293253      0.77412343      1.25179444
C      -2.74238391      1.88785478      1.26302534
C      -0.36415598     -0.94761481     -0.10748337
C       1.12222739     -0.49914027     -0.28517767
C       2.00768802     -1.78148959     -0.32105741
C       3.44019900     -1.57569593     -0.81715824
O       4.01644603     -0.42082176     -0.23142121
C       1.25196537      0.20665735     -1.62163174
O       1.08096381     -0.36836559     -2.69706811
N       1.54297655      1.54197745     -1.60340451
C       1.85357104      2.27585680     -0.50498636
S       2.25146193      3.88520005     -0.63171541
N       1.82409566      1.65025850      0.69785190
C       1.53745953      0.33013437      0.91630134
O       1.56846117     -0.11935393      2.06268410
H      -2.77942857     -2.35219102      0.15941364
H      -3.79235910     -1.14163896      0.97138601
H      -4.31759215     -1.85571596     -0.55443384
H      -2.51495973     -0.77273870     -1.79021732
H      -3.46462068      0.42607149     -0.95059702
H      -1.11967753      0.97069983     -0.80482164
H      -2.00014232     -0.00294327      1.96528953
H      -0.77549231      1.20287202      1.63797810
H      -2.49849601      2.66017071      0.52681095
H      -3.74575014      1.50749869      1.05200210
H      -2.77314160      2.36012441      2.25043587
H      -0.46526465     -1.51704005      0.82662422
H      -0.58129833     -1.66224207     -0.91399918
H       2.05687580     -2.21135254      0.68831899
H       1.54690658     -2.55140725     -0.95360856
H       3.46653187     -1.45868384     -1.90496097
H       4.04988280     -2.44773386     -0.55790325
H       4.96668836     -0.43798112     -0.44733510
H       1.61014061      1.99237434     -2.50683767
H       2.09438747      2.17860324      1.51692803
