15
C/C(=C\C(=O)O)C(=O)O
C       0.36667073      1.58677838     -0.52471685
C       0.48602698      0.18095652     -0.01132156
C      -0.52724719     -0.68004493      0.19978991
C      -1.94880523     -0.35542948      0.02179129
O      -2.45780402      0.72979560     -0.17056325
O      -2.68457378     -1.47527793      0.11563832
C       1.87744583     -0.25526037      0.26072096
O       2.86814462      0.44811887      0.17149672
O       1.98658394     -1.54245606      0.62936191
H      -0.52361375      1.73926946     -1.13944427
H       1.21406528      1.84550091     -1.16950394
H       0.34479694      2.29422784      0.31016459
H      -0.34661363     -1.69156537      0.55092573
H      -3.60526910     -1.16345721     -0.00936541
H       2.95019238     -1.66115622      0.76502586
