45
CCC#CCCOC(=O)C(C)c1ccc2cc(OC)ccc2c1
C      -6.85827148      2.99857022     -0.62791464
C      -5.98876107      3.00785526      0.61775246
C      -4.84359000      2.09872298      0.47528774
C      -3.90416008      1.35875430      0.36136613
C      -2.75228142      0.45723296      0.22402708
C      -3.19519716     -0.97457408     -0.06597460
O      -2.06605992     -1.86465800     -0.06542492
C      -1.35364850     -1.91916065     -1.22868294
O      -1.62731790     -1.29487079     -2.24562220
C      -0.15482145     -2.84398368     -1.06332890
C       0.32737871     -3.35936735     -2.42121671
C       0.96175071     -2.16936722     -0.28561817
C       1.36354634     -2.68309577      0.95301192
C       2.38133883     -2.06335114      1.68258205
C       3.02201199     -0.91595320      1.19173574
C       4.04772219     -0.28167073      1.91218484
C       4.68375600      0.86077532      1.41705988
O       5.66283444      1.36646803      2.22798518
C       6.36653840      2.50691617      1.75206032
C       4.28934285      1.38136310      0.18680359
C       3.26788429      0.76235557     -0.54209893
C       2.62616473     -0.38612809     -0.05376354
C       1.59960343     -1.01742523     -0.77672713
H      -7.25467324      1.99681006     -0.82673423
H      -7.70503648      3.68134022     -0.50548223
H      -6.29007971      3.31521221     -1.50930711
H      -6.59090241      2.71241443      1.48416534
H      -5.63180788      4.02663464      0.80491623
H      -2.08852791      0.81496108     -0.57087997
H      -2.15182923      0.47291953      1.14132028
H      -3.75234406     -1.05049959     -1.00805189
H      -3.87033883     -1.32726526      0.72330926
H      -0.51130832     -3.72401010     -0.51080937
H       1.16457336     -4.05534460     -2.30059743
H      -0.48011901     -3.88646525     -2.94182450
H       0.65925785     -2.54776052     -3.07778175
H       0.88681772     -3.56953583      1.36699812
H       2.67166970     -2.48444647      2.64265205
H       4.36333780     -0.67792366      2.87488121
H       5.69507819      3.36359073      1.63196571
H       7.11579737      2.77473414      2.50327035
H       6.89506903      2.28382217      0.81906333
H       4.75156755      2.26796834     -0.23616612
H       2.97638254      1.18788855     -1.50023635
H       1.29165204     -0.60045280     -1.73530601
