18
BrCCc1ccccc1
Br      4.26856827     -0.52888665      0.23554276
C       2.40055900     -0.13240175      0.62104014
C       1.54883576     -0.42467256     -0.60323733
C       0.09369213     -0.12801215     -0.33927754
C      -0.42624708      1.15020561     -0.58350416
C      -1.76765051      1.42969815     -0.31817528
C      -2.59932110      0.43702068      0.19656922
C      -2.09068701     -0.83594252      0.44737544
C      -0.74963909     -1.11793755      0.18289410
H       2.35949809      0.92119759      0.91292672
H       2.12102234     -0.75204102      1.47828121
H       1.65653123     -1.47390724     -0.90791591
H       1.89050186      0.16719203     -1.46247050
H       0.20977391      1.93671490     -0.98382922
H      -2.16421371      2.42270080     -0.51336185
H      -3.64390843      0.65543335      0.40217696
H      -2.73921291     -1.61007947      0.84929704
H      -0.36810277     -2.11628218      0.38566819
