14
Nc1ccc(Cl)cc1Cl
N      -2.25622981     -0.56655265      0.36231542
C      -0.92254982     -0.21922065      0.08626553
C      -0.04452469     -1.20824800     -0.37181274
C       1.31570221     -0.93340240     -0.54030131
C       1.81447841      0.32604748     -0.21486474
Cl      3.48968727      0.65906044     -0.42182427
C       0.97129679      1.31112428      0.28912645
C      -0.38603048      1.02963729      0.45540944
Cl     -1.40796754      2.26979454      1.09779962
H      -2.86517523      0.24501346      0.45177696
H      -2.64095303     -1.28322612     -0.24430739
H      -0.41360590     -2.20599361     -0.59686783
H       1.97947992     -1.71016211     -0.91151320
H       1.36639190      2.28612804      0.55879807
