13
O=C(O)Cn1cnnn1
O       1.10175398      1.57238270      0.67022643
C       1.45845078      0.53049596      0.14727761
O       2.76775930      0.31413556     -0.10260006
C       0.60877621     -0.64556293     -0.22938967
N      -0.79416419     -0.31625910     -0.27024234
C      -1.60766378      0.10481062      0.73336435
N      -2.83509810      0.17096887      0.27143989
N      -2.76477205     -0.22649791     -1.04276460
N      -1.52026281     -0.53882758     -1.37851452
H       3.21963644      1.13835727      0.18303563
H       0.74066153     -1.44438560      0.50632055
H       0.90311847     -1.00189834     -1.22203457
H      -1.27819577      0.34228047      1.73388129
