16
OCc1c(Cl)cccc1Cl
O      -2.50549783     -0.61788033      0.85054242
C      -1.95630291      0.27125026     -0.11018676
C      -0.45918864      0.13308357     -0.09717565
C       0.33858331      0.90944376      0.76462293
Cl     -0.33940070      2.08671916      1.83812442
C       1.73162278      0.76407362      0.79133502
C       2.35720520     -0.16563853     -0.03283770
C       1.58755419     -0.95452321     -0.88152902
C       0.19429230     -0.81180549     -0.91082148
Cl     -0.66943870     -1.85030239     -1.99412077
H      -3.47006166     -0.50550294      0.81816296
H      -2.38134834      0.04455292     -1.09277485
H      -2.27680286      1.29168348      0.12117758
H       2.33381268      1.37336286      1.46179025
H       3.43780468     -0.28035208     -0.00805055
H       2.07716651     -1.68816466     -1.51825880
