17
C1=CC2CCC1C2
C       0.98637294      1.26355405     -0.23346530
C       1.49486323      0.08272266     -0.61850416
C       0.61201502     -0.99536001     -0.03227546
C      -0.74104759     -0.95030799     -0.77244690
C      -1.32981083      0.41693396     -0.32662313
C      -0.23433949      0.97007004      0.60860199
C       0.24689255     -0.31439171      1.29022185
H       1.34251933      2.24344395     -0.51240806
H       2.34142861     -0.07625414     -1.26880158
H       1.07874445     -1.97647155      0.05805106
H      -0.63156481     -1.00971124     -1.86061501
H      -1.39585724     -1.76526498     -0.44411571
H      -2.26859319      0.26141810      0.21673179
H      -1.52793328      1.07186814     -1.18186219
H      -0.53610007      1.77357015      1.28083952
H      -0.54421937     -0.83492426      1.84182170
H       1.10662973     -0.16089517      1.95484958
