40
CCOc1ccc(NC(=O)OC(C)C)cc1OCC
C      -5.72043212     -0.07517857      1.73560196
C      -4.21088684     -0.12374743      1.89035933
O      -3.63760566     -0.09512461      0.58544529
C      -2.27384482     -0.06970287      0.48347182
C      -1.39742870     -0.12792497      1.56997071
C      -0.01008412     -0.04339665      1.37981069
C       0.52430772      0.10755109      0.10129823
N       1.89885621      0.21555471     -0.16616451
C       2.93996465      0.22215506      0.71702045
O       2.89622691      0.12710469      1.93409717
O       4.08983001      0.36467384      0.00309175
C       5.31296633      0.39377619      0.76394025
C       6.43437761     -0.04376875     -0.17099635
C       5.56221144      1.80429312      1.28478951
C      -0.34756491      0.15458334     -0.98941526
C      -1.73076206      0.04275456     -0.80536037
O      -2.47683872      0.12315222     -1.95555492
C      -3.33772579     -1.00479736     -2.14146156
C      -3.59331945     -1.15257226     -3.63184141
H      -6.07216237     -0.91231537      1.12476086
H      -6.02535478      0.84250244      1.22085380
H      -6.21449836     -0.11361501      2.71004436
H      -3.88394600      0.74405973      2.47446808
H      -3.93342040     -1.05170426      2.40276942
H      -1.75550339     -0.23518465      2.58781546
H       0.62463989     -0.09227554      2.25960457
H       2.18894621      0.32592564     -1.12757130
H       5.26253609     -0.31747904      1.59887926
H       6.49242625      0.60735650     -1.05085433
H       6.24449954     -1.05754260     -0.54193234
H       7.40397240     -0.03712697      0.33700127
H       4.75801021      2.12183210      1.95619261
H       5.58562693      2.53030034      0.46497819
H       6.50865868      1.86142609      1.83095299
H       0.03087142      0.27324646     -2.00136961
H      -4.29495322     -0.83107141     -1.63814342
H      -2.88234653     -1.92776871     -1.76048156
H      -4.05667508     -0.24309022     -4.03381887
H      -2.65553457     -1.30238985     -4.18000731
H      -4.24804061     -2.00447103     -3.83231690
