40
CC(C)CC1OC(O)C(Cc2ccccc2)NC1=O
C      -5.44772935     -0.54663075     -1.06833259
C      -4.26634423     -0.05040835     -0.22834439
C      -4.25841663     -0.77404478      1.11792811
C      -2.95586506     -0.21997319     -1.02978290
C      -1.70563240      0.34632261     -0.33391715
O      -1.31304007     -0.56452742      0.69731341
C      -0.10495305     -0.16042710      1.33274801
O      -0.29991706      1.07115645      2.00708747
C       1.04905668     -0.09190815      0.29958037
C       2.34324295      0.42305400      0.95280640
C       3.55774076      0.25442478      0.06726417
C       4.17167101     -0.99823819     -0.06916006
C       5.27973371     -1.15450529     -0.90326235
C       5.78320779     -0.06282780     -1.60804291
C       5.18058927      1.18683725     -1.47882241
C       4.07305182      1.34601820     -0.64509455
N       0.68526407      0.70827625     -0.87137493
C      -0.59534115      0.66438240     -1.36910643
O      -0.80195029      0.94985250     -2.54539928
H      -6.39477501     -0.38806680     -0.54153441
H      -5.50398893     -0.00724738     -2.01981146
H      -5.35680201     -1.61578310     -1.28857387
H      -4.42079612      1.01945950     -0.03835552
H      -3.99106946     -1.82951897      1.00119018
H      -3.55193255     -0.31161104      1.81338673
H      -5.24536753     -0.72677028      1.59122496
H      -2.79892140     -1.28593273     -1.24198198
H      -3.09781853      0.27587250     -1.99796077
H      -1.97043893      1.30782409      0.12569357
H       0.14157621     -0.91578557      2.08750869
H      -0.90823239      0.86798642      2.73780567
H       1.19561867     -1.10694530     -0.09350540
H       2.53008475     -0.11523538      1.89124330
H       2.23778103      1.48106533      1.22603974
H       3.79363919     -1.86153822      0.47343648
H       5.75139030     -2.12865915     -1.00391809
H       6.64591435     -0.18550692     -2.25767048
H       5.57334301      2.03875092     -2.02808376
H       3.61315135      2.32848106     -0.55688149
H       1.38327524      0.83232760     -1.59622496
