68
CC(CCC(=O)O)C1CCC2C3CCC4CC(O)CCC4(C)C3CC(O)C12C
C      -5.15563226     -0.37337809      1.39502467
C      -3.93892040     -0.84970399      0.58399994
C      -4.30959907     -0.93219339     -0.91536737
C      -4.67760200      0.38741365     -1.59675300
C      -6.14980540      0.68917958     -1.54229575
O      -6.67837996      1.62384794     -0.96445926
O      -6.89200482     -0.18619945     -2.24752835
C      -2.66923761     -0.00301714      0.90555431
C      -2.39427885      0.06806546      2.41522074
C      -1.03887067      0.73731305      2.48800768
C      -0.21794999      0.12668493      1.33937611
C       0.77034368      1.14702004      0.72859126
C       1.76654410      1.74394908      1.74346846
C       3.08160162      0.99106107      1.88355236
C       3.73063197      0.80714099      0.51119415
C       5.16956146      0.28748205      0.63062794
C       5.83077262      0.17226781     -0.74291219
O       7.10505423     -0.44868436     -0.61050070
C       4.99337511     -0.64235772     -1.72439326
C       3.54927009     -0.14449934     -1.80941334
C       2.83967012     -0.06183861     -0.42486540
C       2.69051088     -1.50381364      0.12546658
C       1.44451930      0.66217401     -0.58770731
C       0.46467147     -0.08558420     -1.52307834
C      -1.01015570      0.03723941     -1.12622772
O      -1.42613924      1.39103591     -1.29372441
C      -1.27478474     -0.46187716      0.32330825
C      -1.14463141     -2.00687025      0.35733663
H      -6.06816654     -0.89032811      1.07860515
H      -5.31357878      0.70418472      1.28712416
H      -5.02767637     -0.58888918      2.46085795
H      -3.75104190     -1.88050982      0.91201262
H      -5.13447656     -1.64913800     -1.02368380
H      -3.47961189     -1.38537667     -1.46233028
H      -4.40409031      0.34394528     -2.65833337
H      -4.13701599      1.23989117     -1.17859963
H      -7.80852753      0.14523742     -2.14019522
H      -2.86421854      1.02960054      0.59037971
H      -2.36102413     -0.92980374      2.86642920
H      -3.14079102      0.66079183      2.95269870
H      -0.56568898      0.57359367      3.46160889
H      -1.16171580      1.81912782      2.35608280
H       0.35905157     -0.69368842      1.77857483
H       0.14873854      2.00950077      0.44433814
H       2.00461666      2.76479203      1.41216082
H       1.31218560      1.86182861      2.73237520
H       3.74715718      1.57308146      2.53325806
H       2.92245385      0.03250170      2.38815019
H       3.80975751      1.80795220      0.05839628
H       5.76370532      0.97174158      1.25097693
H       5.21011891     -0.67365930      1.15640559
H       5.99273694      1.17485615     -1.15658800
H       7.62818275      0.08414790      0.01256297
H       5.45596887     -0.59753950     -2.71848122
H       5.01838101     -1.70407418     -1.44979996
H       3.55591214      0.84900767     -2.27711112
H       2.99244751     -0.80052602     -2.48920124
H       2.21211023     -2.17035807     -0.59778720
H       3.65504665     -1.96486324      0.35524223
H       2.10839068     -1.54432454      1.04543227
H       1.67719526      1.60190885     -1.11577680
H       0.71130194     -1.14559286     -1.60680915
H       0.59545387      0.32098891     -2.53528882
H      -1.59446529     -0.54955284     -1.83993166
H      -1.20776269      1.66081329     -2.20217745
H      -0.12824180     -2.33426232      0.12253182
H      -1.80727712     -2.48726306     -0.36841377
H      -1.38407628     -2.41160137      1.34641974
