27
CCCCC[C@H]1CCC(=O)O1
C      -4.52900880      0.12867913      0.35427982
C      -3.14680628     -0.17148176      0.91187115
C      -2.05900367      0.04886862     -0.13902295
C      -0.66995053     -0.25437376      0.42594477
C       0.41930410     -0.03454460     -0.62877231
C       1.81021219     -0.35900241     -0.08675017
C       2.89975106     -0.17362779     -1.12068125
C       4.11285942      0.08170015     -0.26036344
C       3.50872078      0.77576745      0.92307066
O       4.12172035      1.42957851      1.75034116
O       2.16315133      0.54322878      0.96671725
H      -4.60036787      1.16912749      0.02154392
H      -5.29135971     -0.03538429      1.12227368
H      -4.75844436     -0.52095200     -0.49641085
H      -3.11902691     -1.20893440      1.26488742
H      -2.96188421      0.47182271      1.78001125
H      -2.25116152     -0.59376456     -1.00686428
H      -2.09367291      1.08690711     -0.49162766
H      -0.48201184      0.38722418      1.29511238
H      -0.63570463     -1.29294913      0.77685655
H       0.21334243     -0.65968918     -1.50579193
H       0.38386403      1.01363436     -0.95155648
H       1.82915097     -1.37762053      0.32114538
H       3.01377390     -1.03605232     -1.78339641
H       2.70335195      0.70872189     -1.74276422
H       4.83772919      0.72239887     -0.76732912
H       4.58147151     -0.84928254      0.07095021
