24
CCc1ccc2ccccc2c1
C      -3.41539464      0.94578745      0.71345972
C      -2.82633651      0.13847942     -0.43314701
C      -1.38141162     -0.21257378     -0.18685194
C      -1.04104731     -1.39832080      0.47114030
C       0.29788601     -1.71432024      0.71323061
C       1.32509993     -0.84910732      0.30707536
C       2.67576394     -1.15304019      0.54370514
C       3.68565853     -0.28046283      0.13510076
C       3.35846858      0.90607577     -0.51434136
C       2.02068325      1.22245129     -0.75684288
C       0.99237582      0.35514749     -0.35279294
C      -0.35927444      0.65924106     -0.58946326
H      -3.37288099      0.38786306      1.65505270
H      -2.87383983      1.88707127      0.85621909
H      -4.46351385      1.18541030      0.50820980
H      -3.40979067     -0.77889146     -0.57833687
H      -2.91407688      0.70420171     -1.36872498
H      -1.81650570     -2.08568450      0.80150173
H       0.53353002     -2.64447752      1.22515276
H       2.95055591     -2.07534573      1.05028005
H       4.72665541     -0.52827818      0.32471496
H       4.14345972      1.58674596     -0.83297923
H       1.78471607      2.15420134     -1.26572760
H      -0.62078072      1.58782643     -1.09341352
