42
Cc1ccc2[nH]c3cc4c(=O)c5cc(C)ccc5[nH]c4cc3c(=O)c2c1
C      -7.51527598     -1.15295815     -0.47009763
C      -6.18222781     -0.50959879     -0.22569346
C      -6.10281736      0.81813409      0.21377330
C      -4.86134930      1.43271479      0.41168565
C      -3.67798673      0.72825753      0.17872392
N      -2.42942129      1.35250810      0.32513415
C      -1.21445021      0.67544152      0.14210104
C       0.00309843      1.32347151      0.35282242
C       1.20549639      0.64454478      0.11392114
C       2.50246982      1.32573320      0.35546176
O       2.52808933      2.47710748      0.77885714
C       3.76007430      0.58953680      0.07103112
C       4.99977616      1.20810011      0.27035341
C       6.18221764      0.50974632      0.00046950
C       7.51526098      1.15326912      0.24446777
C       6.10282014     -0.81801236     -0.43892135
C       4.86135854     -1.43271857     -0.63649088
C       3.67798884     -0.72835975     -0.40326498
N       2.42943793     -1.35270238     -0.54941312
C       1.21445838     -0.67567064     -0.36629482
C      -0.00309000     -1.32370906     -0.57699396
C      -1.20548846     -0.64477008     -0.33812536
C      -2.50246393     -1.32591401     -0.57978821
O      -2.52808268     -2.47732078     -1.00309677
C      -3.76007319     -0.58961984     -0.29562455
C      -4.99978308     -1.20806087     -0.49528285
H      -7.46486874     -2.23318116     -0.29751477
H      -8.27340115     -0.75074736      0.21008715
H      -7.83389899     -0.97332259     -1.50145582
H      -7.01157173      1.38721892      0.40091789
H      -4.83172121      2.46704884      0.74383562
H      -2.40395236      2.20500331      0.87171516
H       0.02930817      2.35262410      0.70276781
H       5.03719087      2.23183982      0.63806502
H       8.27331548      0.75089726     -0.43570031
H       7.83405504      0.97398094      1.27583278
H       7.46474706      2.23343373      0.07154498
H       7.01158080     -1.38701401     -0.62629048
H       4.83174232     -2.46706350     -0.96860826
H       2.40393670     -2.20523029     -1.09594793
H      -0.02929977     -2.35285678     -0.92695436
H      -5.03719934     -2.23178131     -0.86304772
