27
Nc1c2ccccc2nc2cccc([N+](=O)[O-])c12
N      -0.24822787     -2.34552614      0.23636976
C       0.01961873     -0.96206858      0.04785170
C       1.37788903     -0.51787171      0.04920378
C       2.51585214     -1.35839414      0.19220963
C       3.81457414     -0.84982462      0.14840515
C       4.00711056      0.50875122     -0.03670552
C       2.89861218      1.34521661     -0.16329547
C       1.59810768      0.85884980     -0.11463002
N       0.60381016      1.74465629     -0.21857835
C      -0.66499938      1.34434381     -0.11119731
C      -1.61328050      2.36147798     -0.14935142
C      -2.97877701      2.12571263     -0.01025679
C      -3.41585043      0.82942043      0.17462235
C      -2.46798288     -0.20662607      0.19975928
N      -3.01758513     -1.53125650      0.40182257
O      -3.63106144     -1.73649165      1.45749452
O      -2.87889693     -2.34799846     -0.52215939
C      -1.05591976     -0.00060723      0.04806709
H      -1.08705871     -2.67281521     -0.24901133
H       0.51722499     -2.95314115     -0.03488541
H       2.40613785     -2.42613397      0.35689777
H       4.66693205     -1.51466699      0.26234989
H       5.01052190      0.92399499     -0.07374919
H       3.05344790      2.41404012     -0.29583915
H      -1.26953118      3.38758287     -0.27986820
H      -3.68298216      2.95330858     -0.03646790
H      -4.47768594      0.62606709      0.29907950
