69
CC(=O)[O-].CCN(CC)c1ccc([C+](c2ccccc2)c2ccc(N(CC)CC)cc2)cc1
C      -0.63537609      0.01664652      0.08150257
C       0.87034775     -0.01742183     -0.11362089
O       1.38872438     -1.16664067     -0.03899116
O       1.41138346      1.10321756     -0.32525648
C       5.06936979      3.31005352     -0.97002266
C       5.70880007      2.28346838     -0.04525307
N       4.76752894      1.83778848      0.99234577
C       5.35873897      1.56150160      2.31524378
C       6.17420881      0.27361639      2.31919200
C       3.65915722      1.05290229      0.65243530
C       2.52852785      1.04137149      1.48515992
C       1.39710287      0.27074479      1.18909985
C       1.35992610     -0.51923103      0.03861651
C       0.15287664     -1.35235949     -0.28027645
C       0.31599405     -2.78899779     -0.69343984
C      -0.46988986     -3.33181452     -1.72008665
C      -0.32360775     -4.66928296     -2.09754841
C       0.61453283     -5.47630308     -1.45885989
C       1.40396966     -4.94947191     -0.43929184
C       1.25417741     -3.61411557     -0.05665520
C      -1.21659465     -0.74623842     -0.17933779
C      -2.26262435     -1.42984356      0.43795312
C      -3.54176125     -0.85624940      0.52342075
C      -3.84015590      0.41582055      0.00472507
N      -5.11038425      0.97709482      0.09114743
C      -5.44697643      2.24967293     -0.56077573
C      -5.12745633      3.42974490      0.34516358
C      -6.20270442      0.32879872      0.82844278
C      -6.95530754     -0.65164877     -0.06055240
C      -2.76368713      1.08072755     -0.60736395
C      -1.47985172      0.51936293     -0.70058724
C       2.46992693     -0.51142069     -0.80901046
C       3.59668070      0.26616381     -0.50549589
H      -0.87508085     -0.20529871      1.12566718
H      -1.11387050     -0.72978936     -0.55958798
H      -1.04612815      0.99928649     -0.16971324
H       5.81135204      3.69237525     -1.67793011
H       4.24526113      2.88324277     -1.54879268
H       4.67526842      4.15737086     -0.39916890
H       6.56838772      2.77331377      0.43010070
H       6.12186873      1.44130553     -0.61156501
H       6.01079418      2.39802224      2.59635425
H       4.59736415      1.51242850      3.10189872
H       6.62444348      0.11509221      3.30441432
H       5.55001901     -0.59606434      2.09000473
H       6.98245304      0.31279967      1.58135329
H       2.50356557      1.66680340      2.37432458
H       0.54825463      0.29889643      1.86818553
H      -1.20377276     -2.71635772     -2.23561825
H      -0.94397730     -5.07688104     -2.89026154
H       0.72806524     -6.51622922     -1.75273637
H       2.13434683     -5.57775769      0.06416782
H       1.87271795     -3.22540538      0.74929852
H      -2.10073540     -2.41693947      0.86527421
H      -4.30492711     -1.45627726      1.00784365
H      -4.95232582      2.35292946     -1.53227179
H      -6.51945677      2.27403762     -0.79124451
H      -4.06354138      3.47197895      0.59904024
H      -5.39622989      4.36911281     -0.14915558
H      -5.68890047      3.36715446      1.28340267
H      -6.91150318      1.08872244      1.18189464
H      -5.84442819     -0.16151985      1.74034821
H      -7.38158406     -0.14430845     -0.93268731
H      -6.30276730     -1.44960638     -0.42871462
H      -7.77602254     -1.11436296      0.49698930
H      -2.88524182      2.07281216     -1.03027896
H      -0.69359235      1.08884831     -1.19111631
H       2.47181509     -1.10751323     -1.71874857
H       4.43251185      0.22012017     -1.19493223
