28
Nc1ccc(OCCO)c(N)c1.[Cl-].[Cl-].[H+].[H+]
N      -4.16554594     -0.54480233     -0.12013481
C      -2.77135173     -0.32486004     -0.18149327
C      -1.88858166     -1.39687611     -0.15376211
C      -0.52817396     -1.20487135     -0.21239640
C      -0.00424686      0.06964411     -0.30097176
O       1.35857480      0.24771373     -0.35892303
C       2.23122444     -0.84311768     -0.32982934
C       3.67453494     -0.36927250     -0.40683329
O       3.93296865      0.46836758      0.69784131
C      -0.87362882      1.14715723     -0.32947638
N      -0.38855680      2.47314453     -0.41952070
C      -2.24774546      0.95249912     -0.27021399
Cl      0.00000000      0.00000000      0.00000000
Cl      0.00000000      0.00000000      0.00000000
H       0.00000000      0.00000000      0.00000000
H       0.00000000      0.00000000      0.00000000
H      -4.69377604     -0.43578175      0.76140441
H      -4.67102044     -0.82179907     -0.97799481
H      -2.27936119     -2.41388516     -0.08402913
H       0.13813097     -2.06026602     -0.18891295
H       2.15102227     -1.46114661      0.59111970
H       2.07100075     -1.54568205     -1.18962117
H       3.90025849      0.13502641     -1.36523846
H       4.38447093     -1.21318248     -0.30749548
H       3.97811989      1.41061837      0.39111498
H       0.30600851      2.78803513      0.28292775
H      -0.70010676      3.13270720     -1.15494776
H      -2.91421897      1.81062975     -0.29381679
