31
C=CC(=O)OC1C=CC2C3CCC(C3)C12
C       5.02214126      0.91204182     -0.89999098
C       4.10262998     -0.03567163     -0.67846595
C       2.82572038      0.28928676     -0.00841783
O       2.49943921      1.39540592      0.38779107
O       2.09959306     -0.85106887      0.07688453
C       0.82507205     -0.69460997      0.70811085
C       0.30588035     -2.06903119      0.99272554
C      -0.85328701     -2.32670733      0.38036771
C      -1.31148635     -1.18104519     -0.46202831
C      -2.59199517     -0.47546735      0.03566986
C      -2.98075151      0.59734379     -0.99893423
C      -1.90069591      1.67367683     -0.80089549
C      -1.02623274      1.08406679      0.32301724
C      -2.08378593      0.39568669      1.18777415
C      -0.21390936     -0.09940372     -0.26469234
H       5.95888770      0.67311582     -1.39196667
H       4.86104277      1.94329569     -0.59641277
H       4.26259401     -1.06335823     -0.98098434
H       0.92214553     -0.13013440      1.64341749
H       0.82160578     -2.76376690      1.64109486
H      -1.39596873     -3.25890880      0.46300989
H      -1.39095332     -1.49445709     -1.50886134
H      -3.40976117     -1.15344401      0.29049165
H      -3.97053761      1.01235042     -0.77724804
H      -2.99459728      0.21104821     -2.02296063
H      -1.33651347      1.86548514     -1.71898830
H      -2.36225583      2.61507521     -0.48172433
H      -0.41692172      1.83263918      0.83372419
H      -1.67000528     -0.17097256      2.02637837
H      -2.84312071      1.08769706      1.56870213
H       0.24602706      0.17983194     -1.22057481
