23
O=C(O)C(=O)c1c(C(=O)O)cccc1C(=O)O
O       1.64148736     -0.98505243     -2.15544047
C       2.13853854     -1.07250937     -1.04955209
O       3.35685848     -1.56317817     -0.75741769
C       1.42470215     -0.61581418      0.21979555
O       1.98691304     -0.72872713      1.30317715
C       0.08441677     -0.02607817      0.09434282
C      -0.05481909      1.37147447      0.14213405
C       1.13756659      2.24908204      0.22108082
O       2.26551446      1.95380265     -0.12124497
O       0.85064249      3.45795913      0.73244695
C      -1.33447310      1.94210571      0.06711744
C      -2.46085630      1.13057319     -0.05617619
C      -2.31912580     -0.25656879     -0.10622082
C      -1.04797684     -0.85030549     -0.02873314
C      -0.91514319     -2.33082405     -0.05992802
O       0.11561290     -2.96145715      0.06860631
O      -2.08802676     -2.95692638     -0.25601186
H       3.48827899     -1.50787009      0.21841590
H       1.71276386      3.92682975      0.74760918
H      -1.46288796      3.02312551      0.09283603
H      -3.45092167      1.57874354     -0.11729466
H      -3.21504556     -0.86832689     -0.20202749
H      -1.85401937     -3.91005770     -0.27529199
