34
O=C(O)c1ccccc1C(C(=O)O)c1ccccc1C(=O)O
O      -2.17441730      0.93540349     -2.41083528
C      -2.61166064      1.23047656     -1.31442475
O      -3.41470035      2.29968212     -1.15734813
C      -2.35976406      0.51476296     -0.03317140
C      -3.35620322      0.57130126      0.95959066
C      -3.20976140     -0.12255809      2.15843755
C      -2.07188764     -0.88835531      2.37404875
C      -1.07355956     -0.95188185      1.39888004
C      -1.18138079     -0.24121723      0.18377030
C      -0.06136533     -0.31588854     -0.86738664
C      -0.36449758     -1.38489959     -1.92244838
O      -1.12056748     -2.33987112     -1.82009005
O       0.35216127     -1.22241207     -3.05915350
C       1.35589460     -0.44924930     -0.27798811
C       1.93352799     -1.73222205     -0.13140983
C       3.21420631     -1.89969543      0.39701744
C       3.94951621     -0.79288708      0.79843223
C       3.40130378      0.48308050      0.67657693
C       2.11067448      0.67206980      0.14493170
C       1.57907189      2.06561243      0.07258734
O       0.41566221      2.41285944      0.02102198
O       2.56292235      2.98534221      0.04767331
H      -3.46309965      2.68838110     -2.05494520
H      -4.26310287      1.15023185      0.79821943
H      -3.98751813     -0.07261359      2.91578392
H      -1.95711288     -1.44191779      3.30288682
H      -0.20591098     -1.57147179      1.61203338
H      -0.05443227      0.61885983     -1.43713315
H       0.01441105     -1.92717184     -3.64958470
H       1.38503554     -2.62771880     -0.42261104
H       3.63481100     -2.89780942      0.49537123
H       4.94732134     -0.91958685      1.21094066
H       3.99216297      1.33434198      1.00953785
H       2.08225911      3.83702220     -0.01921132
