31
O=C(O)CC[C@@H](C(=O)O)N1C(=O)c2ccccc2C1=O
O       1.77862157      3.00740476     -0.31045366
C       2.42522385      2.12127262      0.22175263
O       3.59454129      1.71236015     -0.29972633
C       2.06003419      1.41585398      1.49726874
C       2.23603348     -0.10265314      1.44178679
C       1.56934793     -0.78592909      0.23525650
C       1.61586748     -2.31344497      0.34171916
O       0.72271754     -3.09824003      0.05849767
O       2.81810345     -2.78791790      0.73091933
N       0.17643442     -0.40530087      0.02154192
C      -0.35245592     -0.21702621     -1.22795469
O       0.21347377     -0.22914806     -2.30444668
C      -1.78622900     -0.00223005     -1.04878431
C      -2.77530403      0.26595402     -1.97430435
C      -4.07912010      0.41312645     -1.49004009
C      -4.35837578      0.28662102     -0.11288521
C      -3.33853112      0.01112218      0.80375771
C      -2.05963579     -0.12574118      0.30096090
C      -0.79956511     -0.41795294      0.98096358
O      -0.69891977     -0.63369173      2.17339831
H       3.70397950      2.26315413     -1.10479948
H       2.67343864      1.83478279      2.30269547
H       1.01855692      1.66373770      1.72916151
H       1.86295323     -0.53285679      2.37941277
H       3.30970441     -0.33232804      1.42553572
H       2.12796627     -0.53995501     -0.67620019
H       2.70027700     -3.76194005      0.72390487
H      -2.54632495      0.35641837     -3.03111043
H      -4.89087611      0.62558094     -2.18375748
H      -5.38227405      0.40269407      0.23851692
H      -3.53966320     -0.09372709      1.86486012
