30
CCC(C(=O)O)C(C(=O)O)c1ccccc1
C      -3.48083996      1.00395395      0.39903664
C      -2.37587278      0.05809862      0.85601444
C      -1.13332891      0.10301952     -0.06013833
C      -1.49783821     -0.42940621     -1.43015182
O      -2.17887136     -1.41163666     -1.67323778
O      -0.98494892      0.30793331     -2.43138295
C       0.04677729     -0.68661275      0.55902041
C       0.06136565     -2.15297148      0.14315103
O       0.71404870     -2.67988626     -0.74196600
O      -0.81143368     -2.88964413      0.86461424
C       1.38030576      0.02422086      0.32536551
C       2.00660232      0.68772775      1.39498805
C       3.21217161      1.36749854      1.20886476
C       3.80831874      1.39867539     -0.04859754
C       3.19885698      0.75121377     -1.11988865
C       1.99268848      0.07141997     -0.93575959
H      -4.31635092      0.97380572      1.10575760
H      -3.11788028      2.03546070      0.34917752
H      -3.86686803      0.72606333     -0.58625821
H      -2.08839402      0.34474257      1.87498597
H      -2.78148793     -0.95886274      0.91173600
H      -0.86106979      1.16251767     -0.16505719
H      -1.28385115     -0.14785408     -3.24659133
H      -0.07850040     -0.70761548      1.65172734
H      -0.76557311     -3.77763411      0.45002592
H       1.56081725      0.68363999      2.38765230
H       3.68563942      1.87322811      2.04637913
H       4.74718917      1.92594313     -0.19431108
H       3.66259558      0.77166891     -2.10277660
H       1.54573250     -0.42870792     -1.79237979
