7
O=P[O-].O=P[O-].[Ba+2]
O      -1.37703551     -0.30047987     -0.00000000
P      -0.07718877      0.55553116     -0.00000000
O       1.45422428     -0.25505129      0.00000000
O      -1.36389111     -0.30492204     -0.00000000
P      -0.08160110      0.56097174     -0.00000000
O       1.44549222     -0.25604969      0.00000000
Ba      0.00000000      0.00000000      0.00000000
