29
CCCCCCCC[Sn](Cl)(Cl)Cl
C       3.81173503      1.06975519     -0.02200853
C       2.62294489      0.97799485      0.87961525
C       1.76257734     -0.23015278      0.57476949
C       1.22972412     -0.22228611     -0.82007554
C       0.39161208     -1.45321198     -1.03166488
C      -0.77978541     -1.54530825     -0.09504741
C      -1.69382567     -0.35279603     -0.27374436
C      -2.85369000     -0.48317715      0.68177305
Sn     -4.13228219      1.21250621      0.41188685
Cl     -3.75547857      2.73239958      2.17012244
Cl     -3.65336212      2.25521524     -1.64874404
Cl     -6.39560473      0.55054612      0.37490184
H       3.83419691      0.33835249     -0.83584552
H       4.77308016      0.91780152      0.55102069
H       3.90114665      2.12756993     -0.40716799
H       2.03107475      1.91664815      0.83434252
H       2.98464800      0.87916697      1.92404855
H       2.38733995     -1.12505187      0.71920860
H       0.89988057     -0.26451153      1.26916767
H       0.62553809      0.68880480     -1.03120783
H       2.02901072     -0.23852608     -1.59119231
H       1.02799895     -2.35528757     -0.84466376
H       0.03051714     -1.54554685     -2.07394576
H      -1.37091027     -2.43742054     -0.40869868
H      -0.49463726     -1.71782168      0.95143423
H      -1.19089220      0.59995819     -0.07617038
H      -2.09682371     -0.41057854     -1.30715428
H      -2.46221858     -0.49886317      1.72922144
H      -3.46351463     -1.38617910      0.50398947
