23
CC(=O)Oc1ccc2c(c1)CC(=O)N2
C       4.27654733      0.59647580      0.75462470
C       2.80188412      0.38191202      0.92578159
O       2.19130419      0.59700336      1.96386450
O       2.27876862     -0.09132436     -0.27190770
C       0.90075171     -0.32182617     -0.22203963
C       0.45602362     -1.65193623     -0.11508544
C      -0.91224447     -1.93181103     -0.10664572
C      -1.77612424     -0.86182717     -0.21963776
C      -1.33466373      0.45634869     -0.34276606
C       0.01491274      0.75149306     -0.35412033
C      -2.51927333      1.36971548     -0.44588516
C      -3.69248322      0.38535894     -0.36687656
O      -4.87966183      0.66151680     -0.41238988
N      -3.16081166     -0.89210732     -0.23609643
H       4.69881466      0.97171178      1.69124090
H       4.45483748      1.33726213     -0.02882813
H       4.76275688     -0.35073106      0.50820680
H       1.17627611     -2.46120765     -0.03438353
H      -1.27226699     -2.94981322     -0.01582163
H       0.37278108      1.76977287     -0.45149010
H      -2.56303984      2.06235783      0.39813265
H      -2.53926930      1.88906126     -1.40709228
H      -3.73581992     -1.71740583     -0.16117306
