19
Cc1cc(C)cc(O)c1
C      -1.88964594     -1.80034834      0.70172400
C      -0.96439089     -0.68400437      0.31632062
C       0.42220100     -0.89426644      0.28310022
C       1.29734211      0.13275327     -0.09819886
C       2.77616696     -0.10994560     -0.15524969
C       0.76824508      1.36940964     -0.48262491
C      -0.60688138      1.57362397     -0.46404020
O      -1.07126159      2.79755325     -0.84860592
C      -1.47689475      0.56009547     -0.07170412
H      -2.80296838     -1.40954207      1.16250727
H      -2.16137131     -2.38337717     -0.18356637
H      -1.41677085     -2.46483025      1.43251755
H       0.82516323     -1.86737764      0.55851147
H       3.05440707     -0.49490759     -1.14109627
H       3.33177934      0.81465285      0.03355650
H       3.08256934     -0.83369968      0.60731038
H       1.42228412      2.17693079     -0.80090005
H      -2.03982539      2.79307044     -0.78228111
H      -2.55014778      0.72420947     -0.06728049
