28
Oc1cc2ccccc2cc1C1=NCCN1
O      -0.54728144     -2.77169071      0.34114508
C       0.13737562     -1.58462725      0.35731520
C       1.52634857     -1.67107726      0.42304545
C       2.31001744     -0.50832614      0.45605157
C       3.71058236     -0.57531366      0.52433581
C       4.47908657      0.58883973      0.56443446
C       3.85766337      1.83373745      0.53823582
C       2.46592520      1.91805843      0.47017273
C       1.67700127      0.75690228      0.42615409
C       0.27428338      0.82741587      0.35532463
C      -0.50005559     -0.33900937      0.31003298
C      -1.98084216     -0.24532873      0.21718192
N      -2.73233932     -1.31090015      0.38248075
C      -4.12824413     -0.80904134      0.22945586
C      -4.01862942      0.58835646     -0.38025390
N      -2.64590927      0.92440665     -0.07289641
H      -1.50680393     -2.54451856      0.38294294
H       1.98965763     -2.65427281      0.45315136
H       4.21381296     -1.53967025      0.54896309
H       5.56262347      0.52166624      0.61843060
H       4.45597048      2.74059341      0.57203486
H       2.00164247      2.90158853      0.45265971
H      -0.20848786      1.80051888      0.35530424
H      -4.60143774     -0.77470675      1.21709860
H      -4.70834167     -1.47916045     -0.41225991
H      -4.72787129      1.29435889      0.05947158
H      -4.16442021      0.55324898     -1.46500813
H      -2.19132677      1.55795161     -0.72050540
