7
C[Hg]C#N
C      -1.48863353      0.06768260     -0.12367067
Hg      0.59817521      0.08044860     -0.32406935
C       2.63690838     -0.16480188     -0.22747817
N       3.79068744     -0.30720720     -0.15967885
H      -1.87371578     -0.91887070      0.16616896
H      -1.73969630      0.87777610      0.59914094
H      -1.92372542      0.36497249     -1.10646193
