34
CCCCCCCCCC(C)=O
C      -5.61993786     -0.56218128      1.18369568
C      -4.16986046     -0.94945911      0.94125657
C      -3.43389854      0.11597999      0.12907746
C      -1.97492925     -0.27782629     -0.11320923
C      -1.23976077      0.79245669     -0.92303615
C       0.19303726      0.39881463     -1.29355063
C       1.12188026      0.27334093     -0.08389819
C       2.56180362     -0.00675952     -0.51819272
C       3.48856874     -0.13415168      0.68510261
C       4.89831383     -0.47288450      0.25041586
C       5.75754829      0.65805262     -0.25074571
O       5.31511872     -1.63082615      0.27665049
H      -5.68710160      0.37850246      1.73951830
H      -6.15729575     -0.44175407      0.23760968
H      -6.12710809     -1.33777833      1.76605164
H      -4.13756046     -1.90918346      0.41250043
H      -3.67014091     -1.09357715      1.90625003
H      -3.94095554      0.25915473     -0.83292694
H      -3.47200458      1.07479615      0.66041642
H      -1.47936763     -0.42478421      0.85285204
H      -1.93717347     -1.23447482     -0.64801956
H      -1.79250251      0.98070174     -1.85190544
H      -1.22916387      1.73697518     -0.36556874
H       0.18237606     -0.54502878     -1.85215957
H       0.59149148      1.16276464     -1.97279794
H       1.08955731      1.19941570      0.50260866
H       0.78118946     -0.53802995      0.56883361
H       2.91191777      0.79956472     -1.17389942
H       2.59797814     -0.92951613     -1.11071389
H       3.14169707     -0.92690732      1.35823567
H       3.51251495      0.79235586      1.26927842
H       5.35712881      1.03997141     -1.19236141
H       6.77645806      0.29763693     -0.41819112
H       5.79018146      1.45463841      0.49669975
