14
CC(C)C
C       1.39225086     -0.33027728      0.24231112
C       0.03648807     -0.05646151     -0.40491305
C      -0.39440595      1.38764708     -0.15823996
C      -1.01647075     -1.02854828      0.12262088
H       1.35047892     -0.19328726      1.32828799
H       2.15628566      0.34616582     -0.15517076
H       1.71788118     -1.35666098      0.04276833
H       0.13399718     -0.20734654     -1.48698243
H      -0.50704401      1.59277746      0.91184936
H       0.34481320      2.08795066     -0.56128559
H      -1.35274644      1.59583973     -0.64563623
H      -1.15378238     -0.91925637      1.20385053
H      -0.72429446     -2.06462982     -0.07858584
H      -1.98345108     -0.85391270     -0.36087436
