29
O=[N+]([O-])OCC(CO[N+](=O)[O-])(CO[N+](=O)[O-])CO[N+](=O)[O-]
O       1.57640693     -2.44608848      2.86305881
N       1.41293308     -2.97000630      1.76154693
O       1.64765334     -4.11364217      1.38131564
O       0.86661896     -2.15544950      0.73504093
C       0.59275800     -0.82627426      1.17332471
C      -0.00000136     -0.00000047      0.00000059
C       0.99371330      0.04640049     -1.19212328
O       2.22163156      0.63733759     -0.77163636
N       3.18051067      0.71198119     -1.81598097
O       4.23652739      1.22112116     -1.45104535
O       2.84450170      0.27288038     -2.91544928
C      -0.27550900      1.43041037      0.53740334
O      -0.82355671      2.23744660     -0.50285376
N      -1.10102508      3.56395261     -0.07968686
O      -0.84312987      3.84244674      1.09098516
O      -1.57271013      4.25632697     -0.97729689
C      -1.31096770     -0.65053858     -0.51860231
O      -2.26469326     -0.71933527      0.53944966
N      -3.49241294     -1.30592484      0.13411840
O      -3.57777881     -1.66923202     -1.03859741
O      -4.31145470     -1.36380602      1.04702208
H       1.51975161     -0.35449791      1.52463837
H      -0.12360237     -0.85145183      2.00489257
H       0.56037862      0.63673888     -2.01006773
H       1.17949790     -0.97239077     -1.55662273
H       0.66158618      1.87592834      0.89611943
H      -0.98177051      1.37897827      1.37636748
H      -1.09836905     -1.66122085     -0.89093889
H      -1.71748777     -0.05209030     -1.34438227
