57
CC(=O)[O-].CCN(CC[n+]1ccccc1)c1ccc(N=Nc2ccc([N+](=O)[O-])cc2Cl)cc1
C      -0.63688386     -0.05583129     -0.04264350
C       0.87348648      0.07024420      0.05720851
O       1.51446631     -1.00869440     -0.07748338
O       1.29440123      1.24306932      0.26308138
C      -3.90907673     -1.59706307     -2.09360802
C      -2.73721783     -0.69774112     -2.45891732
N      -2.40141554      0.17251391     -1.30646576
C      -3.11154244      1.46689482     -1.27358035
C      -3.35295523      1.96455006      0.16073005
N      -4.20238923      0.99653790      0.90600011
C      -3.61573030      0.00360218      1.61667709
C      -4.38660930     -0.91514152      2.32006551
C      -5.77115650     -0.80815480      2.29071407
C      -6.35892229      0.21455970      1.55747181
C      -5.55004269      1.11275590      0.86899111
C      -1.05499073      0.10156637     -0.91755514
C      -0.20153014      1.21040683     -0.86286447
C       1.12544275      1.08760483     -0.42741660
C       1.64245385     -0.15091291     -0.04052851
N       2.95818228     -0.28284235      0.43521405
N       3.77703781     -0.04525257     -0.48290819
C       5.09177884     -0.09561141      0.01923700
C       5.70115064     -1.33799153      0.26122948
C       7.01160128     -1.41173681      0.74337600
C       7.72745414     -0.22951922      0.97790466
N       9.10115364     -0.30073227      1.49353938
O       9.58049627     -1.42474257      1.69393404
O       9.69243741      0.76798578      1.70081592
C       7.14448115      1.01929719      0.72990433
C       5.83325397      1.07811927      0.24825974
Cl      5.14378603      2.63783006     -0.04825394
C       0.80313300     -1.26214211     -0.07842089
C      -0.52064772     -1.13651867     -0.51685829
H      -0.93906377     -1.09065973     -0.23006357
H      -1.09857213      0.27528642      0.89232277
H      -1.00783427      0.56658548     -0.86242221
H      -4.79061297     -1.01104364     -1.81588865
H      -3.65841256     -2.24379623     -1.24662856
H      -4.17707545     -2.23353985     -2.94175833
H      -1.89509798     -1.32338288     -2.77941614
H      -3.00060086     -0.08068476     -3.32703330
H      -2.58427276      2.22555115     -1.86413399
H      -4.09265045      1.34734775     -1.75024635
H      -3.87873075      2.92644863      0.15173474
H      -2.42665328      2.10232526      0.72665331
H      -2.53097519     -0.04737650      1.61160285
H      -3.90853100     -1.71173000      2.88644248
H      -6.38934691     -1.51911225      2.83797709
H      -7.44274116      0.31227678      1.52376868
H      -5.97154428      1.92646039      0.28529036
H      -0.51902151      2.19602529     -1.18854556
H       1.77023853      1.96472604     -0.40579006
H       5.14315762     -2.25487020      0.07600574
H       7.45431199     -2.39032814      0.93014202
H       7.69627667      1.94100769      0.90562093
H       1.18340341     -2.23408626      0.22610790
H      -1.14073750     -2.03034015     -0.52992118
