54
CC12C=CC(=O)C=C1CCC1C2C(O)CC2(C)C1CCC2(O)C(=O)CO
C       3.09071616     -0.50025762      1.54164990
C       2.77542230     -0.33242710      0.03715151
C       3.43556308     -1.52212789     -0.65512452
C       4.41139211     -1.45297650     -1.57003668
C       4.95367818     -0.15397310     -2.00126186
O       5.84097655     -0.07841050     -2.84126255
C       4.37829262      1.05350726     -1.37873891
C       3.39641700      0.98496246     -0.46141305
C       2.79807826      2.25426358      0.08424732
C       1.31216430      2.29564815     -0.24083110
C       0.57933951      1.05191734      0.29027713
C       1.21246504     -0.27312900     -0.24573269
C       0.39200839     -1.47502010      0.29483977
O       0.81561101     -2.70979337     -0.27617770
C      -1.10684434     -1.35484836     -0.01050223
C      -1.76346870     -0.05597899      0.50309190
C      -1.84717192     -0.08009673      2.04236317
C      -0.93999318      1.16941280      0.03786415
C      -1.34556554      1.36689559     -1.42760264
C      -2.76185213      0.80230535     -1.56297504
C      -3.14383541      0.21349914     -0.18506389
O      -3.84344739      1.26547476      0.48831089
C      -4.04362559     -1.04416892     -0.35479116
O      -4.12103175     -1.66912374     -1.41642534
C      -4.77767176     -1.56535558      0.87830961
O      -5.33900418     -0.54656898      1.68847216
H       2.60592970      0.25775692      2.16370006
H       4.16956245     -0.42617437      1.73084173
H       2.76906817     -1.47842074      1.91789411
H       3.12366281     -2.51725226     -0.34528610
H       4.85743763     -2.33487829     -2.01324270
H       4.79046809      1.99250616     -1.73073310
H       3.28003768      3.14215816     -0.34293403
H       2.95679802      2.31198102      1.16681334
H       1.18492976      2.37826258     -1.32756642
H       0.87617782      3.20089180      0.19904921
H       0.70551209      1.05799988      1.38088694
H       1.10727609     -0.28257831     -1.34118446
H       0.53097553     -1.56764851      1.37595441
H       0.69216233     -2.65674151     -1.24106989
H      -1.24162078     -1.45436991     -1.09593086
H      -1.62114624     -2.22897446      0.41150141
H      -0.86251326     -0.19341592      2.50585384
H      -2.27273645      0.84605951      2.44278729
H      -2.46153081     -0.91061892      2.39821131
H      -1.29213271      2.05588360      0.58721869
H      -1.31943590      2.42686454     -1.70362647
H      -0.67803472      0.84050519     -2.11758952
H      -2.75843353      0.05462659     -2.36345338
H      -3.45556518      1.59422661     -1.86978290
H      -4.21705337      0.89523543      1.31496940
H      -4.07817997     -2.15104297      1.47944464
H      -5.58459358     -2.23228088      0.55695135
H      -6.16563432     -0.26419089      1.25027550
