24
CN(C)C(=O)c1ccc([N+](=O)[O-])cc1
C      -3.58393541      0.73327955     -0.41974621
N      -2.24568518      0.32364760     -0.02890305
C      -2.14778695     -0.42677798      1.21582905
C      -1.23065513      0.41766465     -0.97872047
O      -1.42176717      0.72975235     -2.15176359
C       0.16832557      0.15449764     -0.56911255
C       0.94222490     -0.72448784     -1.33677559
C       2.27640876     -0.96099176     -0.99483616
C       2.83375863     -0.29908241      0.10917891
N       4.23579719     -0.54479808      0.47281428
O       4.68897192      0.05756706      1.45642743
O       4.87995079     -1.34399961     -0.22100776
C       2.06806659      0.60112540      0.86613652
C       0.73421784      0.83278787      0.51875554
H      -4.14872473     -0.15364386     -0.72190360
H      -3.55860103      1.44067900     -1.25336548
H      -4.07575978      1.21145132      0.43241560
H      -2.90370255     -1.21855687      1.20843658
H      -2.34565396      0.25369589      2.04873893
H      -1.17354773     -0.89846003      1.35045255
H       0.50551927     -1.21754279     -2.20369708
H       2.86372394     -1.64988956     -1.59907790
H       2.49527080      1.13256608      1.71453629
H       0.14358342      1.54951638      1.08518775
