33
CCCCCCOC(=O)n1cc(F)c(=O)[nH]c1=O
C      -5.55334704     -0.54776066      1.75061001
C      -4.76140409     -0.17689393      0.50683125
C      -3.26448782     -0.42204429      0.70178082
C      -2.47358893     -0.04336437     -0.55216172
C      -0.98358468     -0.37152578     -0.45184732
C      -0.24867215      0.43925058      0.61199402
O       1.15040928      0.11031984      0.59484323
C       1.94109129      0.81208706     -0.26081004
O       1.49659791      1.69036546     -0.99947746
N       3.30003122      0.44567999     -0.22912027
C       4.16763105      1.13216113     -1.07767807
C       5.47290767      0.87723322     -1.14095049
F       6.29861697      1.54738917     -1.96455461
C       6.05793464     -0.16938777     -0.29088851
O       7.24844758     -0.45270528     -0.30262687
N       5.15514458     -0.80424955      0.51876089
C       3.79692483     -0.56632128      0.60630641
O       3.15605990     -1.25462502      1.39688670
H      -5.23346111      0.04788096      2.61155001
H      -6.62033808     -0.36526322      1.58895597
H      -5.42322922     -1.60631006      1.99733072
H      -5.12845094     -0.76634362     -0.34141521
H      -4.93785268      0.87867362      0.26939323
H      -3.09359041     -1.47895788      0.93937794
H      -2.91438244      0.16477153      1.55839024
H      -2.60060510      1.02572306     -0.76173468
H      -2.88573959     -0.58471628     -1.41280925
H      -0.84384381     -1.44182100     -0.25504575
H      -0.51842749     -0.19204476     -1.42893720
H      -0.40204880      1.51710209      0.48345870
H      -0.61222368      0.18046908      1.61124706
H       3.74169803      1.90755968     -1.70922327
H       5.51578309     -1.53233172      1.11819120
