19
O=C(O)c1cccc(O)c1C(=O)O
O      -2.38784215      1.26032330     -0.78297734
C      -1.36164794      1.58246498     -0.21639409
O      -1.23211850      2.76526052      0.41004818
C      -0.12035264      0.78845732     -0.13718298
C       1.10974815      1.43710390     -0.34018937
C       2.29269922      0.69910744     -0.39988710
C       2.25180742     -0.68873351     -0.28078963
C       1.03315877     -1.33545817     -0.08012318
O       1.08611122     -2.70259151      0.00646000
C      -0.15819230     -0.60206502      0.02651675
C      -1.39283854     -1.33558312      0.34723587
O      -1.62781373     -2.47264712     -0.02504078
O      -2.16887777     -0.69194718      1.23209944
H      -2.11251574      3.18514194      0.31119977
H       1.14788005      2.51682781     -0.47189769
H       3.24339583      1.20279022     -0.55931454
H       3.16860949     -1.27000493     -0.34726347
H       0.17528070     -3.06388184     -0.05373268
H      -2.94649153     -1.27456505      1.36123286
