33
CC(C)Cc1ccc(C(C)C(=O)O)cc1
C      -4.68328779     -0.12951297      0.17750842
C      -3.18157466      0.10776847      0.35512924
C      -2.91704844      1.60096415      0.56470381
C      -2.41778235     -0.44921190     -0.86223185
C      -0.91761818     -0.45750753     -0.68957964
C      -0.11531649      0.45476665     -1.38386696
C       1.27201171      0.45005771     -1.21899589
C       1.88800534     -0.46911400     -0.35703671
C       3.39329596     -0.48782170     -0.16487603
C       4.13123023     -0.82303772     -1.46295001
C       3.90394990      0.82107359      0.40829402
O       4.30531795      1.79139989     -0.21500221
O       3.86841627      0.85053417      1.75752955
C       1.08125231     -1.38088333      0.33758428
C      -0.30608139     -1.37545868      0.17223016
H      -5.24075964      0.23611829      1.04641462
H      -4.89821188     -1.19798559      0.07016647
H      -5.06499487      0.38472290     -0.71115409
H      -2.86488150     -0.42413145      1.26126923
H      -3.50457073      1.98398019      1.40614097
H      -1.86313783      1.79082234      0.79060696
H      -3.18501913      2.18073865     -0.32512046
H      -2.73552482     -1.48202037     -1.05913052
H      -2.68661169      0.11771595     -1.76331394
H      -0.56484194      1.18196930     -2.05641667
H       1.86694182      1.17758203     -1.76886342
H       3.66207410     -1.27393036      0.55404731
H       3.96510553     -0.06774194     -2.23923449
H       3.80391435     -1.78969315     -1.86134972
H       5.21181353     -0.87592288     -1.28884237
H       4.17713458      1.75306172      1.98194690
H       1.52530459     -2.10478656      1.01763009
H      -0.90850482     -2.09451588      0.72296139
