33
CCCCCCCC(=O)NCC(=O)O
C      -4.87749587     -0.97202611     -3.34688684
C      -3.39561644     -1.16354965     -3.06599146
C      -2.96442726     -0.41833779     -1.80314638
C      -1.47318942     -0.61287802     -1.52406944
C      -1.03936491      0.14133701     -0.26607927
C       0.45094483     -0.05522308      0.01419242
C       0.88647445      0.70555657      1.26415412
C       2.36175805      0.52750893      1.55504134
O       3.11928050     -0.20409351      0.92452805
N       2.80362751      1.21599068      2.65641096
C       4.22436532      1.37532417      2.95437602
C       4.95229915      0.14528565      3.49829641
O       5.82152791      0.21558196      4.35854669
O       4.65402160     -1.01989606      2.88301647
H      -5.16464564     -1.51336147     -4.25377805
H      -5.48563672     -1.35022941     -2.51896246
H      -5.11548636      0.08646837     -3.49276723
H      -3.18538347     -2.23392222     -2.95719013
H      -2.81760696     -0.80507758     -3.92570872
H      -3.18110450      0.65091003     -1.91561776
H      -3.54826685     -0.77796265     -0.94712705
H      -0.88959986     -0.25994247     -2.38306167
H      -1.25839600     -1.68175007     -1.40442228
H      -1.62387808     -0.20940693      0.59325479
H      -1.25249781      1.21037510     -0.38758247
H       0.66529555     -1.12407624      0.13878432
H       1.03792980      0.28547281     -0.84796909
H       0.32142766      0.35290108      2.13496315
H       0.68901322      1.77642622      1.13715612
H       2.17034423      1.88063638      3.08469903
H       4.74029064      1.70413729      2.04621315
H       4.29335634      2.16630406      3.70821965
H       4.08063937     -0.89062852      2.08850760
