26
OCCOCC#CCOCCO
O       4.90574528      1.07318296     -0.31187284
C       4.84338434     -0.11704532      0.47114377
C       4.11706897     -1.21185444     -0.30778025
O       2.81032820     -0.76428953     -0.68656159
C       1.82944885     -1.00071001      0.32247872
C       0.55160695     -0.43715053     -0.11896604
C      -0.49896919      0.02384250     -0.47717466
C      -1.77672269      0.58664665     -0.91976370
O      -2.78463457      0.24885541      0.03192795
C      -4.06112089      0.77515338     -0.34823692
C      -5.06885657      0.37932117      0.72511463
O      -4.67259936      0.92924123      1.98046876
H       4.03617416      1.14940268     -0.75233890
H       4.32173861      0.12788939      1.40029209
H       5.86420729     -0.42517368      0.71381089
H       4.65646207     -1.40455916     -1.24111822
H       4.06723201     -2.14847781      0.25804212
H       2.13429317     -0.53276801      1.26393757
H       1.72900444     -2.07976931      0.48276641
H      -2.04768000      0.17893121     -1.89995104
H      -1.69904697      1.67660077     -0.99982751
H      -4.36042872      0.36491180     -1.31834890
H      -3.98995202      1.86678194     -0.41035402
H      -5.11166805     -0.70834366      0.83940829
H      -6.06724062      0.75326893      0.48255305
H      -3.72777471      0.69611143      2.07379636
