29
CC1=CC(C)C(CO)C(C)C1
C      -2.92384455      0.28458452     -1.31560164
C      -1.59033590      0.27440559     -0.62495470
C      -0.86663729      1.39627921     -0.46019507
C       0.49635537      1.44344777      0.19278921
C       0.38073362      2.14941617      1.54868567
C       1.14381583      0.03421356      0.33090158
C       1.81038240     -0.38764274     -0.99247222
O       2.89787560      0.48813053     -1.27953201
C       0.08683523     -0.98476597      0.82609942
C       0.66455200     -2.37629589      1.09180010
C      -1.11434053     -1.07058221     -0.13312360
H      -3.20160624      1.28570554     -1.66160957
H      -3.70731801     -0.06229424     -0.63418862
H      -2.90316647     -0.37609679     -2.18832290
H      -1.25360804      2.34814382     -0.81992680
H       1.14009241      2.07130878     -0.43601852
H       1.36139955      2.22503596      2.03049626
H      -0.00404677      3.16831350      1.42488165
H      -0.29346888      1.62382833      2.23286403
H       1.94321446      0.10402648      1.08187893
H       2.22500767     -1.39669956     -0.92372313
H       1.11233534     -0.35465391     -1.83447134
H       3.26563619      0.21096132     -2.13612695
H      -0.28904803     -0.62454998      1.79373872
H       0.95675363     -2.88490547      0.16812423
H      -0.07919242     -3.00770135      1.59025701
H       1.54146546     -2.31563218      1.74447980
H      -1.93658428     -1.57758020      0.38787435
H      -0.86325734     -1.68840061     -1.00460390
