30
C=CCNC(=O)CN(CC=C)C(=O)C(Cl)Cl
C       3.36012353     -1.93651232      1.42447376
C       3.09549914     -1.13050544      0.38767254
C       3.29087323      0.35285659      0.38889493
N       1.98877198      0.96319441      0.44029054
C       1.27611829      1.27077040     -0.69853792
O       1.71615212      1.15376809     -1.83921014
C      -0.17070846      1.68359661     -0.42188210
N      -0.99549322      0.48659196     -0.22852015
C      -1.50054915     -0.15745483     -1.43596632
C      -2.91794675      0.24646431     -1.72947607
C      -3.69795386      1.10464503     -1.05568356
C      -1.05400274     -0.06859399      1.05184205
O      -0.38532452      0.43418459      1.96488880
C      -1.93457847     -1.30657378      1.27702914
Cl     -2.75674349     -1.18502036      2.85025715
Cl     -0.89507425     -2.74758793      1.22634248
H       3.73479749     -1.55125268      2.36767188
H       3.19432681     -3.00709809      1.35047152
H       2.72199766     -1.56457675     -0.53757059
H       3.84736716      0.68933731      1.26928842
H       3.83188432      0.66738888     -0.50893421
H       1.45155918      0.84156940      1.29914193
H      -0.55420835      2.27142693     -1.26251447
H      -0.20444291      2.32197040      0.46805933
H      -0.86143479      0.10520124     -2.28598245
H      -1.44997633     -1.24417874     -1.32452454
H      -3.34270427     -0.22710334     -2.61479453
H      -4.71156685      1.30801045     -1.39126144
H      -3.36069675      1.63707981     -0.17202550
H      -2.71606574     -1.41159817      0.52560980
