55
CC(=O)O[C@]1(C(C)=O)CC[C@H]2[C@@H]3C=C(Cl)C4=CC(=O)C=C[C@]4(C)[C@H]3CC[C@@]21C
C       3.19570162      2.59516390     -2.94272935
C       3.57530245      1.73541005     -1.77739881
O       4.72090342      1.42150361     -1.48839581
O       2.46052693      1.34089615     -1.10530879
C       2.64360292      0.56671052      0.11058335
C       3.53833207      1.37215873      1.08666030
C       4.74433496      0.70819809      1.69828569
O       3.26514540      2.54272096      1.37417585
C       3.09477750     -0.87588166     -0.26344298
C       1.81548106     -1.73012334     -0.39614159
C       0.67154101     -0.73069699     -0.27844810
C      -0.72763965     -1.23454252      0.10018275
C      -1.22513624     -2.36297685     -0.76347044
C      -2.48126767     -2.44837542     -1.23041191
Cl     -2.90272262     -3.85604782     -2.15649301
C      -3.49375167     -1.42850992     -0.94477929
C      -4.58516622     -1.27909265     -1.72038315
C      -5.54286045     -0.17213863     -1.53113904
O      -6.56008580     -0.08687983     -2.20715594
C      -5.21161471      0.84721334     -0.52138492
C      -4.13820834      0.70819102      0.26624249
C      -3.18495701     -0.48086255      0.23898245
C      -3.42213725     -1.22864199      1.57265863
C      -1.69988891     -0.01266853      0.06552616
C      -1.20586249      1.09651512      1.02596789
C       0.25023052      1.51656037      0.73442800
C       1.21968691      0.31675162      0.72830922
C       1.34693047     -0.23164681      2.17890446
H       4.10188327      2.94402312     -3.44604030
H       2.63650188      3.46690843     -2.59352640
H       2.60077244      2.01488674     -3.65226501
H       5.40969871      0.33592739      0.91646513
H       5.29739890      1.44013343      2.29460027
H       4.43001471     -0.10466900      2.35634484
H       3.64364860     -0.90565236     -1.21016786
H       3.73497033     -1.33568660      0.49465987
H       1.79583525     -2.26030676     -1.35413951
H       1.77633593     -2.48462651      0.39762806
H       0.57544799     -0.26009824     -1.27044223
H      -0.68747471     -1.64461659      1.11534297
H      -0.52881114     -3.17329245     -0.96833519
H      -4.81649143     -1.91923690     -2.56407916
H      -5.88836680      1.68966691     -0.44409785
H      -3.97184288      1.47264736      1.02200793
H      -4.47486763     -1.52142989      1.67973122
H      -2.83607521     -2.14912196      1.65774531
H      -3.17235842     -0.60123790      2.43586739
H      -1.63379072      0.43211895     -0.94261563
H      -1.82487159      1.99395220      0.92138962
H      -1.30216351      0.77209576      2.06703392
H       0.56338358      2.26069493      1.47600743
H       0.26339038      2.02644595     -0.23662096
H       0.39354586     -0.57018135      2.59178454
H       1.71383082      0.54726111      2.85702861
H       2.03925717     -1.07551378      2.25240200
