19
C=COC(=O)c1ccccc1
C      -4.10349583     -0.18431603      0.02090544
C      -3.04899501      0.22288282     -0.68788335
O      -1.74540748      0.00478875     -0.24125718
C      -0.74541450      0.46545511     -1.05013662
O      -0.87021403      1.04593977     -2.11904082
C       0.58161109      0.16061083     -0.44361591
C       0.71923924     -0.50553330      0.78283736
C       1.99034343     -0.76421726      1.30268956
C       3.12782117     -0.36107757      0.60417399
C       2.99996723      0.30151907     -0.61540999
C       1.73178307      0.56201561     -1.13850353
H      -3.97901544     -0.69829448      0.96773257
H      -5.11232555     -0.00899898     -0.33672573
H      -3.13552052      0.73841250     -1.63620574
H      -0.15055806     -0.83078629      1.34814037
H       2.09301129     -1.28102452      2.25403460
H       4.11577823     -0.56365978      1.01102295
H       3.88683616      0.61599673     -1.16030287
H       1.64455552      1.08028705     -2.09200243
