53
CCN1CCN(C(CNS(=O)(=O)c2ccc(Cl)cc2)c2ccccc2)CC1
C      -5.84458114      1.39822033     -2.24812253
C      -4.54381335      0.88040568     -2.86064752
N      -3.42285341      0.67873218     -1.94378609
C      -3.68415929     -0.25510657     -0.84875700
C      -2.40723039     -0.58811670     -0.02545740
N      -1.32732514      0.43492292     -0.06256491
C      -0.41099370      0.31573298      1.11126246
C       0.76559267      1.34531504      1.08998529
N       1.37605609      1.40946190     -0.24466317
S       2.89328549      2.04571997     -0.45853441
O       3.05015541      3.15557317      0.45781107
O       3.09287748      2.19823145     -1.88270143
C       3.93160892      0.70754385      0.08492536
C       4.10699708     -0.39863805     -0.75580015
C       4.91901455     -1.45589237     -0.33857858
C       5.55192427     -1.39694326      0.90704511
Cl      6.55001684     -2.70179547      1.42318374
C       5.38953959     -0.28504208      1.73783074
C       4.57861826      0.77617976      1.32588426
C       0.20076812     -1.08290703      1.26857271
C       0.76051850     -1.77102779      0.17872080
C       1.34874164     -3.02462209      0.35093693
C       1.39382561     -3.60657881      1.61623123
C       0.84602866     -2.93764255      2.70916867
C       0.25339147     -1.68416751      2.53827822
C      -1.94793852      1.76936199     -0.17623392
C      -2.82118945      1.92535288     -1.45401276
H      -6.24631727      0.70034265     -1.50568968
H      -5.71868903      2.37702171     -1.77308108
H      -6.60146708      1.50754217     -3.03505920
H      -4.23290112      1.56294833     -3.66156829
H      -4.76095109     -0.07335269     -3.36234001
H      -4.09205755     -1.19412152     -1.23953913
H      -4.43305027      0.16669712     -0.16435373
H      -2.00100991     -1.52796008     -0.41315118
H      -2.73129854     -0.77349392      1.00713837
H      -0.99717962      0.52114141      2.01858828
H       1.51463561      1.08610077      1.84622180
H       0.38329154      2.34158570      1.33776087
H       0.76485824      1.30909560     -1.05758051
H       3.60994997     -0.44292326     -1.72540285
H       5.04930190     -2.31929103     -0.98701900
H       5.89179273     -0.24050704      2.70324633
H       4.45591769      1.64113207      1.97413166
H       0.73285281     -1.33019067     -0.81662668
H       1.77018026     -3.54599769     -0.50453753
H       1.85555823     -4.58197598      1.74941283
H       0.88318111     -3.39315057      3.69643243
H      -0.16085280     -1.17790472      3.40807209
H      -2.57289073      1.96092437      0.70794147
H      -1.19337719      2.56253546     -0.21047426
H      -3.57826973      2.68678555     -1.23605917
H      -2.19008441      2.32474246     -2.25644052
