22
CNC(=O)N(C)c1nnc(C(F)(F)F)s1
C      -3.15589999     -1.84128854      0.31586434
N      -1.98139693     -1.04068203      0.08196667
C      -1.96904108      0.30529457      0.33774552
O      -3.00575933      0.87954345      0.67780904
N      -0.76211623      0.98943470      0.16116727
C      -0.80803663      2.43971983      0.32998672
C       0.42185335      0.30393561     -0.12357980
N       0.59072020     -0.99917848     -0.22274445
N       1.88905610     -1.35898195     -0.50611583
C       2.68368678     -0.31157630     -0.61347464
C       4.14373467     -0.33725503     -0.91321734
F       4.87948796      0.22884439      0.08203716
F       4.44424465      0.34675277     -2.05074381
F       4.62798826     -1.59590898     -1.08149026
S       1.87577873      1.18849489     -0.36653682
H      -4.04123922     -1.34200534     -0.08700025
H      -3.01994660     -2.80887396     -0.17260452
H      -3.27601628     -1.98317429      1.39319524
H      -1.08960158     -1.52346793      0.04556804
H      -1.81489152      2.81113066      0.53903021
H      -0.16659397      2.72553491      1.16987700
H      -0.46601133      2.92370709     -0.59046089
