38
Nc1ccc(/C=C/c2ccc(N)cc2S(=O)(=O)[O-])c(S(=O)(=O)[O-])c1.[Na+].[Na+]
N       5.86269227     -0.25324143      1.70438146
C       4.55382603     -0.19544633      1.19520899
C       3.46072166     -0.28026037      2.05376952
C       2.15665955     -0.31372479      1.54618450
C       1.90406363     -0.28808627      0.16151792
C       0.50296288     -0.33789646     -0.29365871
C      -0.50296516      0.33786628      0.29369208
C      -1.90406233      0.28807136     -0.16149830
C      -2.15664167      0.31370577     -1.54616792
C      -3.46069704      0.28025849     -2.05377070
C      -4.55381418      0.19546492     -1.19522410
N      -5.86267338      0.25326260     -1.70441892
C      -4.32763475      0.26794354      0.17852603
C      -3.01799715      0.29585093      0.69825723
S      -2.84501009      0.32932809      2.51134925
O      -4.21659048      0.16201541      2.99754042
O      -2.27852324      1.65255599      2.76039564
O      -1.97226951     -0.80476005      2.79932445
C       3.01798685     -0.29584276     -0.69825340
S       2.84497546     -0.32932720     -2.51134376
O       2.27857472     -1.65259442     -2.76037853
O       4.21653591     -0.16191988     -2.99755578
O       1.97215134      0.80469806     -2.79930954
C       4.32762987     -0.26791380     -0.17853953
Na      0.00000000      0.00000000      0.00000000
Na      0.00000000      0.00000000      0.00000000
H       5.93369260      0.17407493      2.62105190
H       6.53584261      0.12316536      1.04313059
H       3.60107652     -0.32016524      3.12930632
H       1.32601877     -0.37806749      2.25021092
H       0.31951875     -0.96731197     -1.16106053
H      -0.31951812      0.96728389      1.16109167
H      -1.32599041      0.37802789     -2.25018584
H      -3.60103686      0.32015976     -3.12931034
H      -5.93365677     -0.17409317     -2.62107157
H      -6.53583408     -0.12312844     -1.04316637
H      -5.16931146      0.29373913      0.86499624
H       5.16929726     -0.29369230     -0.86502127
