16
Cn1cnc2nc(Cl)nc(Cl)c21
C      -2.29756606      0.36984947      0.22339750
N      -1.07344535     -0.37189298      0.04899805
C      -0.99394660     -1.73068901     -0.09557325
N       0.24941501     -2.13216683     -0.23693698
C       1.00018018     -0.99181587     -0.18171479
N       2.33762875     -0.94437020     -0.28504712
C       2.80966190      0.30082685     -0.19662543
Cl      4.50912832      0.45933988     -0.31794153
N       2.13746982      1.44897150     -0.02554014
C       0.80452411      1.35945581      0.07315092
Cl     -0.01981557      2.83617731      0.28994514
C       0.20067085      0.12556781     -0.00346117
H      -2.25498909      0.89293957      1.18172175
H      -3.14616148     -0.31945185      0.22194508
H      -2.39950100      1.07461325     -0.60529954
H      -1.86325379     -2.37735470     -0.09101848
