47
C=C1CC23CC1(O)CCC2C12C=CC(O)C(C)(C(=O)O1)C2C3C(=O)O
C       3.64901961     -0.63781204     -2.55229822
C       2.40976922     -0.29826527     -2.17392403
C       1.66826449     -0.91810938     -1.01499904
C       0.26935217     -0.22373665     -1.04086829
C       0.12743159      0.04066809     -2.54640937
C       1.49075296      0.68473471     -2.85201802
O       1.72761107      0.75754209     -4.24108952
C       1.62670837      2.07594791     -2.19185938
C       1.40214351      2.04964902     -0.66641460
C       0.19824555      1.17009155     -0.34280174
C      -0.09182134      0.82842573      1.11037871
C      -0.52890716      1.92073271      2.04804737
C      -1.26728558      1.59341053      3.12702891
C      -1.64399931      0.14990706      3.41462549
O      -3.06690577      0.08291873      3.39415389
C      -1.06797208     -0.85219623      2.36811443
C      -1.66671635     -2.24703558      2.48736123
C       0.43537586     -0.84507614      2.55306297
O       1.08249247     -1.56907682      3.28985862
O       0.98146857      0.13432501      1.75711487
C      -1.18145277     -0.23786335      0.97153559
C      -0.78045217     -1.07311296     -0.27683442
C      -2.01081463     -1.36141866     -1.10409129
O      -2.74815456     -0.53762626     -1.61792976
O      -2.24973646     -2.67831650     -1.22961860
H       4.22345807     -1.38317689     -2.01265238
H       4.10959972     -0.17667063     -3.42135187
H       2.21069648     -0.77302119     -0.07898807
H       1.56503396     -1.99488078     -1.19795310
H      -0.69958390      0.71108705     -2.80622334
H      -0.01740075     -0.88432038     -3.12102608
H       1.02278630      1.30102649     -4.62964123
H       0.89673900      2.75596821     -2.65112305
H       2.60985619      2.51094549     -2.41234748
H       2.30264389      1.68215027     -0.16101007
H       1.24118906      3.07071843     -0.30238791
H      -0.68699437      1.70254854     -0.72820972
H      -0.21754242      2.94445877      1.86811502
H      -1.57809460      2.36030433      3.83031044
H      -1.30450101     -0.11820533      4.42248610
H      -3.39871274      0.68331364      4.08365646
H      -2.70361646     -2.26751739      2.13607608
H      -1.65647834     -2.58587813      3.52963762
H      -1.10030330     -2.98783317      1.91369091
H      -2.17591411      0.20368887      0.81572756
H      -0.34291789     -2.03056357      0.02610740
H      -3.06435990     -2.73284972     -1.77301911
