31
C=CCOP(=O)(OCC=C)c1ccccc1
C      -2.31774083     -3.25065486      1.25627584
C      -1.09924926     -3.10304462      0.71972470
C      -0.78188526     -2.20447740     -0.43132588
O       0.20040930     -1.28572793      0.00521440
P       0.43672965      0.00384115     -0.94311515
O       0.65937509     -0.39190160     -2.37662297
O       1.76001322      0.64501598     -0.27154087
C       2.97316584     -0.04054170     -0.50700317
C       4.02454579      0.59796320      0.34318540
C       4.75978478     -0.04700224      1.25853492
C      -0.87499527      1.13089772     -0.58169739
C      -1.18625734      1.47019305      0.74312498
C      -2.22958437      2.35283638      1.02467327
C      -2.97273866      2.90665563     -0.01611786
C      -2.67354314      2.57991923     -1.33757363
C      -1.63011726      1.69685268     -1.61862721
H      -3.17921523     -2.70736121      0.88009262
H      -2.47577577     -3.92095121      2.09583503
H      -0.26655281     -3.66572405      1.13542266
H      -0.37649100     -2.79499681     -1.25896840
H      -1.67272388     -1.67350794     -0.78324844
H       3.24729634      0.05988397     -1.56200117
H       2.85675784     -1.10386666     -0.27236644
H       4.18526970      1.66253549      0.18985696
H       4.63217413     -1.10785129      1.45036783
H       5.50574650      0.48266673      1.84317600
H      -0.60725268      1.04124565      1.55947773
H      -2.46093226      2.60971241      2.05537427
H      -3.78436269      3.59594974      0.20278006
H      -3.25153985      3.01442930     -2.14943719
H      -1.40031062      1.44701117     -2.65347091
