22
NS(=O)(=O)c1cccc(S(N)(=O)=O)c1
N      -3.33989033      1.21103113     -0.36418171
S      -2.52072007      0.90976165      1.07396858
O      -1.97334988      2.17947360      1.49197709
O      -3.37949220      0.11644312      1.91965544
C      -1.18384339     -0.11298822      0.51416597
C      -1.33471635     -1.50405865      0.51056475
C      -0.28107310     -2.31241898      0.07989125
C       0.91998050     -1.73406139     -0.33604062
C       1.06513284     -0.34301053     -0.30801566
S       2.57325502      0.40174582     -0.85814381
N       3.29522760      0.83494908      0.59115611
O       3.42096734     -0.61224657     -1.43910877
O       2.25121536      1.63152856     -1.54239260
C       0.01564136      0.47905683      0.11205009
H      -3.29251809      2.21011623     -0.57298360
H      -3.01942308      0.64141459     -1.14609089
H      -2.26463155     -1.96298387      0.84352211
H      -0.39447456     -3.39477787      0.07201340
H       1.73469578     -2.37239958     -0.67333607
H       4.17030244      0.32397660      0.71375456
H       3.40161421      1.84871698      0.64479745
H       0.13610016      1.56073147      0.12836294
