28
CC12CCC(C(O)C1=O)C2(C)C
C       0.59287424     -2.03738495      0.95189446
C       0.50880915     -0.73121075      0.19988814
C       0.88751263     -0.81039257     -1.29733250
C       0.32919536      0.51379156     -1.86543679
C      -0.26837769      1.21275225     -0.61460785
C       0.89664608      1.72871817      0.27162308
O       1.81494172      2.52086482     -0.44047440
C       1.43341188      0.37004446      0.73139677
O       2.46864424      0.20864307      1.36162117
C      -0.85249191      0.02140769      0.19916178
C      -2.00247474     -0.71513926     -0.51607768
C      -1.37827166      0.39414085      1.60057069
H      -0.11612934     -2.77161130      0.55684299
H       0.38212731     -1.89868739      2.01744869
H       1.59753513     -2.46780958      0.87618962
H       0.43026019     -1.67124160     -1.79672721
H       1.97135387     -0.87295669     -1.44969355
H       1.10817295      1.10344629     -2.35836819
H      -0.44402436      0.31581537     -2.61543950
H      -0.97984602      1.99960126     -0.87830981
H       0.52812407      2.29201190      1.13342986
H       2.62080595      2.56405472      0.10878052
H      -1.75027784     -1.08915107     -1.51067992
H      -2.32943503     -1.58325582      0.06767493
H      -2.86495816     -0.04901193     -0.63357280
H      -2.17036128      1.14736119      1.52328295
H      -1.80097507     -0.48377564      2.10296609
H      -0.61279167      0.78897494      2.27394847
