12
C/C=C\C
C       1.55831216     -0.50964427      0.03400796
C       0.71841117      0.70767298     -0.17966134
C      -0.61981992      0.80371221     -0.13807129
C      -1.60997059     -0.28226986      0.13247293
H       0.97724406     -1.40895241      0.24707137
H       2.24003655     -0.34350144      0.87403726
H       2.16038242     -0.70272612     -0.85943001
H       1.28128846      1.61587520     -0.39373130
H      -1.05951540      1.78386490     -0.32098292
H      -2.20780908     -0.02429789      1.01226856
H      -1.15109882     -1.25620997      0.31321742
H      -2.28746103     -0.38352334     -0.72119864
