28
Cc1cn([C@H]2C=C[C@@H](CO)O2)c(=O)[nH]c1=O
C       2.87527687      1.58986951      1.14301906
C       2.31475598      0.50375810      0.28561607
C       1.00844584      0.31066296      0.06591755
N       0.52903903     -0.70737597     -0.73815648
C      -0.89699686     -0.92093695     -0.93205694
C      -1.45373528     -1.75221526      0.17046546
C      -2.52168669     -1.15649593      0.69989938
C      -2.77362442      0.12833480     -0.00338776
C      -2.88954994      1.33858643      0.92712608
O      -3.06224698      2.53236351      0.16159509
O      -1.61918843      0.32725188     -0.86034858
C       1.38571222     -1.61382028     -1.34560173
O       1.01451989     -2.56943155     -2.02399499
N       2.72218463     -1.39779413     -1.14060549
C       3.27216809     -0.42251587     -0.36094499
O       4.48326852     -0.32315153     -0.19885465
H       3.45094489      1.16617244      1.97238534
H       3.53377717      2.23991183      0.55771252
H       2.08615089      2.21632920      1.57230417
H       0.26999701      0.96297875      0.52184543
H      -1.09715189     -1.37784735     -1.90772486
H      -1.06131173     -2.71700122      0.45588057
H      -3.13945653     -1.55880603      1.48940285
H      -3.65412053      0.05994912     -0.65205865
H      -1.98311703      1.46814566      1.52790866
H      -3.74438798      1.23910270      1.60309392
H      -2.40749801      2.48278949     -0.56192134
H       3.35783127     -2.04881432     -1.57370822
