39
CC(C)C[C@H](N)C(=O)N[C@@H](C)C(=O)NCC(=O)O
C      -4.71413650      0.52035230     -0.41262394
C      -3.32897754      1.16863536     -0.33037213
C      -3.40417848      2.43883478      0.51745276
C      -2.31140508      0.15045776      0.22313558
C      -0.86269711      0.64838058      0.32609133
N      -0.30894544      0.99737426     -1.00433934
C       0.02150837     -0.45702906      0.93798969
O       0.39009855     -0.45623385      2.11007193
N       0.39131655     -1.42928225      0.03111274
C       1.42937379     -2.40638358      0.34412257
C       1.29304144     -3.62337682     -0.55904511
C       2.79796989     -1.71615146      0.15537628
O       3.52315335     -1.89488776     -0.81940564
N       3.10168472     -0.81154785      1.15695877
C       4.16066906      0.16098035      0.96673190
C       3.65395760      1.36675097      0.18366608
O       2.49948053      1.61701227     -0.13481038
O       4.64738858      2.22712038     -0.12568209
H      -5.44382580      1.21450993     -0.84297522
H      -4.68933565     -0.37163132     -1.04754196
H      -5.07365172      0.22224949      0.57820590
H      -3.03975260      1.45154924     -1.34956614
H      -2.46329509      2.99622384      0.48458993
H      -3.62738913      2.20509664      1.56388694
H      -4.18844880      3.10757572      0.14634600
H      -2.34154629     -0.75135901     -0.40437065
H      -2.63801161     -0.17708610      1.21996012
H      -0.78567155      1.52221351      0.98157418
H       0.66405097      1.30942182     -0.85628927
H      -0.79202155      1.82511975     -1.35218107
H       0.31688430     -1.10547056     -0.93364046
H       1.33502218     -2.71496952      1.39194451
H       0.32426882     -4.11152491     -0.40807491
H       1.36288831     -3.34874511     -1.61779426
H       2.08193057     -4.35375779     -0.35078906
H       2.33363001     -0.55537972      1.77906171
H       4.99297615     -0.29835311      0.42560900
H       4.48454735      0.49315986      1.95663237
H       4.20744887      2.94015097     -0.63365482
