46
CC(C)(C)c1cc(CCC(=O)O)cc(-n2nc3ccccc3n2)c1O
C      -1.84175261     -3.19390823      1.82926148
C      -2.25530611     -2.37399012      0.58638683
C      -2.08970859     -3.22966600     -0.68972194
C      -3.77858365     -2.11646944      0.73263314
C      -1.41175883     -1.07805579      0.48485283
C      -2.03051036      0.19006850      0.52687596
C      -1.30302300      1.38745837      0.44154487
C      -2.01632178      2.71801484      0.46918934
C      -2.41447560      3.16852813     -0.93332099
C      -3.12518960      4.49072452     -0.89186289
O      -3.39520890      5.15793363      0.09149607
O      -3.47103187      4.91499754     -2.12329512
C       0.08402017      1.33333740      0.30008822
C       0.74421727      0.09711370      0.25358177
N       2.15973836      0.09111398      0.11121418
N       2.86036479     -1.07524629      0.06190050
C       4.12834963     -0.66017938     -0.07202265
C       5.30521218     -1.42268218     -0.17429534
C       6.48302402     -0.66165521     -0.30605385
C       6.49306684      0.75912680     -0.33457837
C       5.32606340      1.54101980     -0.23384669
C       4.13858283      0.80009741     -0.10141865
N       2.87796479      1.23606375      0.01498716
C      -0.00271773     -1.09797507      0.34648184
O       0.60670260     -2.32695224      0.30413580
H      -1.91465023     -2.58880387      2.74073685
H      -0.81852238     -3.57455557      1.76963877
H      -2.49069417     -4.06842322      1.95824414
H      -2.74891179     -4.10566908     -0.66508175
H      -1.07342495     -3.61128486     -0.82004695
H      -2.34058069     -2.65021847     -1.58614095
H      -4.18171063     -1.57189132     -0.12930343
H      -4.33489036     -3.05946579      0.80114421
H      -4.00740526     -1.54607019      1.64053070
H      -3.10942962      0.27632331      0.62978228
H      -1.37112138      3.46921873      0.94345008
H      -2.90189048      2.64481601      1.11404180
H      -1.52430304      3.27566425     -1.56380531
H      -3.08406914      2.43256593     -1.39303553
H      -3.91958426      5.77221484     -1.96537251
H       0.64471962      2.26451624      0.22777286
H       5.30399410     -2.50435046     -0.15311844
H       7.43470325     -1.18790871     -0.39026307
H       7.45180075      1.26849050     -0.43950515
H       5.33773085      2.62253414     -0.25579024
H       1.57652154     -2.20652083      0.20991172
