15
CC(O)(CCl)CCl
C      -1.39896468     -0.35465460     -0.15716220
C       0.11079378     -0.08972622     -0.21965669
O       0.51725917     -0.24167769     -1.59500524
C       0.89362302     -1.14990452      0.58173807
Cl      0.54405340     -1.14377770      2.32713245
C       0.48043861      1.32987540      0.25704802
Cl     -0.25390333      2.59709013     -0.77419891
H      -1.80948765     -0.16477824      0.83924887
H      -1.61871026     -1.39372843     -0.42905293
H      -1.94669572      0.26275026     -0.87733857
H       0.11821013      0.49689396     -2.09511928
H       0.67737949     -2.15540590      0.20328341
H       1.97265137     -1.00173419      0.45993818
H       1.56197659      1.48699352      0.19718213
H       0.15137609      1.52178422      1.28196267
