20
OCc1ccc(CO)cc1
O       3.59930759      0.55623316      0.22936910
C       2.84644394     -0.61951796     -0.03520839
C       1.37166543     -0.32000113     -0.02135403
C       0.64301752     -0.39593962      1.17222698
C      -0.71896151     -0.08734656      1.19156149
C      -1.37166516      0.31999802      0.02135781
C      -2.84644286      0.61951875      0.03521334
O      -3.59930992     -0.55622451     -0.22939050
C      -0.64301754      0.39593582     -1.17222364
C       0.71896114      0.08734139     -1.19155870
H       2.97255705      1.28863881      0.35896868
H       3.15337114     -1.01904190     -1.00754385
H       3.09788252     -1.37214466      0.71950411
H       1.13352085     -0.69783648      2.09582550
H      -1.26920601     -0.16562355      2.12744334
H      -3.15337166      1.01902427      1.00755600
H      -3.09787572      1.37216411     -0.71948365
H      -2.97256147     -1.28863001     -0.35900131
H      -1.13352125      0.69783296     -2.09582224
H       1.26920591      0.16561910     -2.12744004
