24
O=C(NCCO)C(=O)NCCO
O       0.12909729     -1.80460646      0.22279322
C       0.49210485     -0.65184388      0.03453009
N       1.78277244     -0.23744972     -0.19432800
C       2.91608008     -1.11670418      0.00188835
C       4.14961747     -0.60099231     -0.73336143
O       4.50725031      0.68397339     -0.22642076
C      -0.54024989      0.50068840      0.04712975
O      -0.18825730      1.65092594     -0.17386007
N      -1.82545983      0.09009215      0.31340050
C      -2.95569330      0.98366525      0.19107857
C      -4.20724482      0.39084645      0.83266404
O      -4.55477245     -0.84324776      0.20537566
H       1.94793905      0.76698274     -0.15486717
H       2.65689372     -2.12432491     -0.33890354
H       3.10118369     -1.15206835      1.08106581
H       3.95209601     -0.50488839     -1.80592104
H       4.99382379     -1.28043181     -0.58236790
H       5.28193387      0.98307456     -0.73355326
H      -1.98781990     -0.91594975      0.34203432
H      -3.11552841      1.14361838     -0.88092769
H      -2.70323407      1.94552027      0.64925946
H      -4.04017884      0.18811779      1.89521447
H      -5.05430640      1.07731896      0.73968706
H      -4.73804737     -0.65614908     -0.73161046
