42
C=COC(=O)CCCCCCCCCCC
C       8.04750345     -0.29078801      1.75966430
C       6.84067376     -0.61751453      1.29387286
O       6.19094175      0.17140312      0.34475410
C       4.95072132     -0.26326914     -0.06070634
O       4.37627586     -1.27566662      0.31794019
C       4.41426453      0.70671087     -1.09209029
C       2.92101550      0.52883190     -1.36609540
C       2.05052670      1.02353536     -0.20662842
C       0.56151460      0.85579886     -0.52041721
C      -0.30741462      1.34919670      0.63861074
C      -1.80775298      1.31065944      0.33434310
C      -2.35607725     -0.10677036      0.15482539
C      -3.87603753     -0.09344098     -0.03135019
C      -4.42438269     -1.51080998     -0.21165834
C      -5.92547227     -1.54728525     -0.50622501
C      -6.78328088     -1.05218241      0.64792254
H       8.56068040      0.59990171      1.41344660
H       8.54363117     -0.91167575      2.49778519
H       6.30017532     -1.49835641      1.61709650
H       4.60776582      1.73156781     -0.75571083
H       4.97265137      0.53390762     -2.01905928
H       2.66450509      1.09664534     -2.26895868
H       2.69689744     -0.52377407     -1.57701431
H       2.29260326      0.47157332      0.70884535
H       2.26719434      2.08103084     -0.01225400
H       0.31286112      1.41484691     -1.43048338
H       0.35587622     -0.20156349     -0.72076883
H      -0.03397873      2.38514553      0.87480406
H      -0.09904506      0.75549844      1.53699971
H      -2.01641665      1.90523627     -0.56338960
H      -2.33629326      1.79631430      1.16412632
H      -1.89300197     -0.58068546     -0.71774968
H      -2.09947365     -0.71448922      1.03088318
H      -4.33999894      0.37986304      0.84121920
H      -4.13264032      0.51459679     -0.90721275
H      -3.90048863     -1.99460452     -1.04539948
H      -4.21081628     -2.10708428      0.68383808
H      -6.20957052     -2.58217020     -0.73163627
H      -6.14442574     -0.95641905     -1.40321452
H      -6.56201681     -1.60364403      1.56713472
H      -7.84359249     -1.19381981      0.41500423
H      -6.62610179      0.01374941      0.83654232
