23
Cn1c(=O)[nH]n(-c2ccccc2)c1=O
C       3.83520920      0.86572852     -0.40395359
N       2.57996550      0.16542826     -0.34549123
C       2.43266089     -1.13423763      0.05611743
O       3.30856402     -1.89694086      0.43365033
N       1.07290950     -1.43309778      0.07674186
N       0.38602574     -0.22231326     -0.09782255
C      -1.02136512     -0.11685242     -0.03769342
C      -1.81093100     -1.26863468      0.11535132
C      -3.20572138     -1.18443562      0.18234151
C      -3.83430264      0.05326722      0.09570148
C      -3.06873511      1.20421103     -0.06171461
C      -1.67347863      1.11906758     -0.12959784
C       1.34453551      0.78593202     -0.35476275
O       1.16821801      1.98368695     -0.52724427
H       4.04654070      1.28163975      0.58576078
H       4.63770912      0.17709949     -0.68141476
H       3.77122316      1.68450588     -1.12569256
H       0.78571738     -2.06275419      0.81507024
H      -1.36277349     -2.25647990      0.16561896
H      -3.79963228     -2.08795512      0.29611351
H      -4.91793261      0.12150915      0.14588379
H      -3.55342381      2.17502089     -0.13336309
H      -1.12098267      2.04660469     -0.24970975
