32
Cc1ccc(Cl)cc1NS(=O)(=O)c1ccc(N)cc1
C       2.00487442      1.72986138     -0.31966367
C       2.13608191      0.25993294     -0.03258584
C       2.71561478     -0.57322713     -1.00347408
C       2.86310611     -1.94136634     -0.77201751
C       2.43924762     -2.48606567      0.43573892
Cl      2.62805262     -4.17206388      0.72204604
C       1.86361220     -1.67718326      1.41199431
C       1.70188984     -0.30840677      1.17904692
N       1.08877019      0.50729457      2.17509036
S      -0.51077941      0.22987896      2.63894677
O      -0.89868610      1.38110489      3.42780313
O      -0.64021462     -1.11231668      3.16316084
C      -1.40341663      0.30943735      1.10329015
C      -1.89818804      1.53574376      0.65471017
C      -2.60313905      1.59245715     -0.55038528
C      -2.86523965      0.42949065     -1.28208717
N      -3.45999364      0.51380967     -2.54574683
C      -2.33273678     -0.78432084     -0.83565223
C      -1.62886379     -0.85644873      0.36895390
H       2.35661351      1.97675766     -1.32707270
H       0.95932664      2.04333042     -0.25421313
H       2.60432673      2.30836580      0.39044723
H       3.05675388     -0.16143894     -1.95168396
H       3.31226520     -2.57283519     -1.53436286
H       1.55238540     -2.11605680      2.35668224
H       1.33517053      1.49377661      2.21803376
H      -1.73274774      2.44757846      1.22343794
H      -2.95399573      2.55560725     -0.91278073
H      -3.88686310     -0.35357798     -2.85732361
H      -4.08492497      1.30673407     -2.65488378
H      -2.46808588     -1.68981763     -1.42211381
H      -1.25021646     -1.81603574      0.71358960
