32
CC(=O)Nc1ccc(S(=O)(=O)Nc2ncccn2)cc1
C      -5.42006140      1.20165404     -1.57000321
C      -4.05159629      0.56803202     -1.61686564
O      -3.51489953      0.31803504     -2.68997163
N      -3.52656550      0.36353631     -0.35354978
C      -2.28194116     -0.21142967     -0.02324775
C      -1.95036529     -0.27544623      1.33853309
C      -0.73560079     -0.82834769      1.75383750
C       0.15877439     -1.31692572      0.79998517
S       1.68507458     -2.05266293      1.33362734
O       2.32031842     -2.71443389      0.21407828
O       1.37543260     -2.80141133      2.53705890
N       2.59960811     -0.75841746      1.83115678
C       3.27503467     -0.04346283      0.85026884
N       2.61926918      0.33083659     -0.24859696
C       3.29444633      1.14512955     -1.07934996
C       4.56000963      1.61474408     -0.81576051
C       5.10815111      1.20372735      0.37743682
N       4.47706493      0.38915578      1.24389304
C      -0.16536302     -1.27790690     -0.55639475
C      -1.38190717     -0.71913665     -0.96421052
H      -5.31381294      2.28641278     -1.48718180
H      -5.99902093      0.82280035     -0.72280153
H      -5.96418959      0.95806925     -2.48712304
H      -4.08985092      0.67516635      0.42737107
H      -2.63208843      0.10238825      2.09632638
H      -0.49582715     -0.87738176      2.81344496
H       3.17336542     -0.95766759      2.64181736
H       2.76794798      1.42180064     -1.98857162
H       5.08473603      2.27023323     -1.49678433
H       6.09794396      1.53116822      0.68297092
H       0.52255553     -1.66746543     -1.30386691
H      -1.59664276     -0.70079377     -2.02838400
