9
CC(=O)OO
C      -1.28406581     -0.17962644     -0.16305194
C       0.14011678      0.25116546     -0.01341071
O       0.56829308      1.37957338     -0.22028533
O       0.93106854     -0.80744808      0.34341095
O       2.27798773     -0.28584595      0.63940913
H      -1.91068008      0.69902265     -0.34054916
H      -1.62447638     -0.66335678      0.75609673
H      -1.37745609     -0.85992770     -1.01285495
H       2.27921224      0.46644346      0.01123528
