35
C=CC(=O)OC1C[C@@H]2CC[C@@]1(C)C2(C)C
C       4.63828189     -1.11365817      2.14066832
C       3.33800042     -0.82264644      2.00930317
C       2.81063123     -0.26324677      0.74680766
O       3.47147922     -0.02327028     -0.24931235
O       1.47704155     -0.07430325      0.90342336
C       0.80029046      0.46617963     -0.23749149
C       0.56584137     -0.60259880     -1.32896613
C      -0.97171359     -0.59374592     -1.50246471
C      -1.33334262      0.73844508     -2.19593651
C      -1.13307388      1.77360713     -1.07591862
C      -0.65819902      0.90139967      0.12229240
C      -0.79003836      1.61310255      1.45657907
C      -1.49687232     -0.40373977     -0.05733960
C      -1.15897377     -1.57057699      0.89093032
C      -3.02652473     -0.21758118      0.03769166
H       5.34258590     -0.94888013      1.32922079
H       5.02513613     -1.52441469      3.06700867
H       2.63522060     -0.98663958      2.81688005
H       1.37224766      1.32092997     -0.62134944
H       1.07584624     -0.33491261     -2.26087395
H       0.92941985     -1.59087642     -1.02937383
H      -1.34953235     -1.47157414     -2.03192275
H      -2.37089997      0.73966756     -2.54612918
H      -0.69556557      0.94775224     -3.06116286
H      -0.39635660      2.53370256     -1.35884847
H      -2.06846392      2.30157766     -0.86073204
H      -1.81937700      1.94289113      1.63137967
H      -0.14879064      2.50061623      1.48682516
H      -0.50440537      0.96606212      2.29176148
H      -0.11427799     -1.88274682      0.88261609
H      -1.40963421     -1.31370759      1.92614563
H      -1.74139140     -2.45963884      0.62077400
H      -3.32793650     -0.02555424      1.07385593
H      -3.42461242      0.60433778     -0.56061902
H      -3.54204031     -1.12595868     -0.29548797
