24
COC(=O)c1ccc(C(=O)OC)cc1
C      -4.99905763      0.00774744     -0.23136388
O      -3.60059770     -0.23452388     -0.39287878
C      -2.81197368      0.56874686      0.36326313
O      -3.20001902      1.43633079      1.12952665
C      -1.37353888      0.25571659      0.13959375
C      -0.41706610      0.99750268      0.84716832
C       0.94864234      0.74452598      0.67467888
C       1.37353939     -0.25570912     -0.20968155
C       2.81197415     -0.56874261     -0.43334753
O       3.20002087     -1.43631830     -1.19961850
O       3.60059638      0.23451513      0.32280954
C       4.99905632     -0.00775962      0.16130038
C       0.41706666     -0.99749397     -0.91725725
C      -0.94864186     -0.74451773     -0.74476762
H      -5.30299200     -0.17627877      0.80389441
H      -5.54006182     -0.68704800     -0.87967156
H      -5.24858707      1.02961910     -0.53387517
H      -0.73147802      1.77846542      1.53836371
H       1.66642815      1.33676831      1.23774264
H       5.54005865      0.68703951      0.80960546
H       5.30299583      0.17626035     -0.87395680
H       5.24858331     -1.02963003      0.46381917
H       0.73147925     -1.77845612     -1.60845315
H      -1.66642752     -1.33676003     -1.30783170
