21
CC(=O)N/N=C/c1ccc([N+](=O)[O-])o1
C      -3.40803379     -1.88755972     -0.33618150
C      -3.66650659     -0.40492954     -0.32655908
O      -4.79754978      0.07017288     -0.41450039
N      -2.56828498      0.41364977     -0.21349638
N      -1.29893173     -0.07322833     -0.11379061
C      -0.37012578      0.82455392     -0.01378040
C       1.00827623      0.43940218      0.09762881
C       1.63022663     -0.79754972      0.12499534
C       3.02262504     -0.55802652      0.25112943
C       3.15252705      0.80937119      0.29191383
N       4.29916028      1.65389326      0.40977125
O       5.39434375      1.08212927      0.49259725
O       4.11546106      2.87753839      0.42019084
O       1.94601323      1.43185062      0.20052982
H      -4.35843644     -2.42100748     -0.43023005
H      -2.77509460     -2.15298945     -1.18725396
H      -2.93020195     -2.19162223      0.59902666
H      -2.75235709      1.41220472     -0.20784243
H      -0.59305995      1.90666150     -0.00981599
H       1.12737689     -1.75440574      0.06068082
H       3.82257253     -1.28434391      0.30498674
