18
Cc1[nH]c(C)c(Cl)c(=O)c1Cl
C       2.29985762     -1.26623799     -0.01189886
C       1.20103529     -0.23377059     -0.05272832
N      -0.08230658     -0.73348989      0.08516694
C      -1.22135002      0.05273556      0.07374648
C      -2.52006323     -0.69616452      0.23975377
C      -1.13201438      1.39009860     -0.07758508
Cl     -2.48752036      2.45510932     -0.10525275
C       0.22589672      2.01311952     -0.23374351
O       0.36215648      3.22741861     -0.37472907
C       1.41024591      1.08941441     -0.21031784
Cl      2.96612620      1.81008243     -0.38999030
H       3.30416678     -0.85069900     -0.12247868
H       2.15787548     -1.99473270     -0.81777651
H       2.27245471     -1.80316736      0.94269853
H      -0.19508270     -1.73851438      0.20186484
H      -3.40602863     -0.05705321      0.22786855
H      -2.63500948     -1.42785489     -0.56753638
H      -2.52043981     -1.23629393      1.19293818
