14
O=C(O)c1nc(Cl)ccc1Cl
O       2.61955322     -1.61674467      0.74928324
C       2.13132712     -0.54333729      0.45608850
O       2.86254476      0.59819928      0.34847426
C       0.68941974     -0.25444933      0.16318113
N       0.46328677      1.06774959     -0.13669341
C      -0.81146185      1.40744655     -0.41240852
Cl     -1.03965817      3.06418297     -0.77915256
C      -1.87410318      0.52288624     -0.41001692
C      -1.61502848     -0.81231065     -0.10217921
C      -0.31171557     -1.22321303      0.19236094
Cl     -0.07033557     -2.88501425      0.56226079
H       2.27159171      1.34904554      0.10265148
H      -2.88130886      0.85458796     -0.64045381
H      -2.43411164     -1.52902892     -0.09339591
