46
COc1ccc2cc(C(C)C(=O)OC3CCCCC3=O)ccc2c1
C      -5.63028697      2.19055833      2.72979812
O      -5.12629895      0.86272080      2.66062603
C      -4.15568473      0.61849012      1.72762646
C      -3.60946223      1.55221778      0.85001283
C      -2.61791467      1.16537588     -0.05805061
C      -2.15797346     -0.15912995     -0.10331803
C      -1.16408130     -0.55813148     -1.01248327
C      -0.69130285     -1.88068620     -1.04411550
C       0.38487325     -2.31246333     -2.02995798
C      -0.20527396     -2.40747718     -3.43907371
C       1.62751877     -1.42548037     -2.02272110
O       2.26061466     -1.10216054     -3.02145020
O       1.99595146     -1.10014634     -0.74946093
C       3.07490323     -0.17033701     -0.65763756
C       3.59873891     -0.20239186      0.77881424
C       4.71912957      0.81313985      0.99636220
C       4.26240548      2.22871004      0.64477577
C       3.72416823      2.31570135     -0.77745932
C       2.65199195      1.26879606     -0.98395735
O       1.53979399      1.56994305     -1.41675888
C      -1.24615705     -2.81317480     -0.15891121
C      -2.24078074     -2.43058935      0.74485182
C      -2.70488862     -1.10721304      0.78563687
C      -3.70057279     -0.70315434      1.69085724
H      -6.39463302      2.21746666      3.51243045
H      -6.10778067      2.48158686      1.78829894
H      -4.84247802      2.89768320      3.00979576
H      -3.92747118      2.58902407      0.84298402
H      -2.20036724      1.91120445     -0.73212010
H      -0.74531714      0.17981573     -1.69700534
H       0.74484699     -3.31202566     -1.75075521
H      -0.51826276     -1.42596005     -3.81345008
H       0.53233121     -2.80589881     -4.14458009
H      -1.07818741     -3.06942568     -3.45907144
H       3.88418944     -0.45894789     -1.34072128
H       3.95710201     -1.21085358      1.01838261
H       2.77678746     -0.00176563      1.47890759
H       5.04468018      0.78219474      2.04223282
H       5.58614602      0.54251058      0.38153282
H       3.47991663      2.53657745      1.34983244
H       5.09760662      2.92733356      0.76665574
H       4.51775048      2.14518959     -1.51273555
H       3.30021471      3.30858166     -0.95979549
H      -0.91092320     -3.84795993     -0.16279567
H      -2.65230540     -3.17634810      1.42147608
H      -4.13325688     -1.42310066      2.38207515
