36
CCOCCOC(=O)/C=C/c1ccc(OC)cc1
C       7.36143362      0.39499982     -0.59439849
C       5.86239846      0.61133823     -0.66349823
O       5.22652153     -0.66585918     -0.68830121
C       3.80423724     -0.57260188     -0.76577334
C       3.17188825     -0.36530870      0.61010577
O       1.73888308     -0.34540773      0.52707564
C       1.20224080      0.83588965      0.13856811
O       1.82574775      1.84398698     -0.15896546
C      -0.27341914      0.78742767      0.09559647
C      -1.00571069     -0.29561220      0.39978603
C      -2.47426348     -0.32389191      0.36213586
C      -3.16014955     -1.08129385      1.31725808
C      -4.55634417     -1.15323445      1.29664959
C      -5.29081326     -0.48204506      0.31785876
O      -6.64583991     -0.63630035      0.41268477
C      -7.43907589      0.03541639     -0.55767763
C      -4.61342922      0.26081813     -0.64770985
C      -3.21405310      0.33470608     -0.62796938
H       7.89319416      1.35043996     -0.57717289
H       7.62772038     -0.17404743      0.30248119
H       7.70735947     -0.18664460     -1.45528937
H       5.53288302      1.18325463      0.20935260
H       5.61065011      1.16700662     -1.57339608
H       3.50312349      0.20270766     -1.47974643
H       3.43782540     -1.51898017     -1.17986413
H       3.54292149      0.53940300      1.10552437
H       3.45013882     -1.19663894      1.26782830
H      -0.73023599      1.72645496     -0.19736201
H      -0.52877819     -1.21993675      0.71865209
H      -2.61914927     -1.61736470      2.09382417
H      -5.07555247     -1.73969836      2.05095099
H      -7.30399331      1.12034507     -0.49604500
H      -7.22508991     -0.33365919     -1.56616392
H      -8.48913359     -0.18205325     -0.33968346
H      -5.13950258      0.79072763     -1.43467043
H      -2.71463335      0.90565622     -1.40720716
