31
Clc1ccc(N2N=NC3C4CC(C5N=NC45)C32)cc1
Cl      5.97828777     -1.24013964     -0.20762570
C       4.35722088     -0.71797415      0.02632382
C       3.52915824     -0.51119870     -1.07050947
C       2.20788776     -0.08528791     -0.87863510
C       1.68649982      0.14536724      0.40590902
N       0.37076407      0.55761826      0.61156999
N      -0.04568506      0.95620659      1.84983831
N      -1.19170362      1.46990485      1.76503762
C      -1.66607969      1.55591512      0.38368076
C      -2.89593271      0.67557403      0.08651727
C      -2.64573381      0.37225348     -1.39721622
C      -1.28563037     -0.28075476     -1.10663741
C      -1.61933659     -1.33920405     -0.03840921
N      -2.64057206     -2.30151098     -0.42605250
N      -3.55793098     -1.75703973      0.25680569
C      -2.70754909     -0.69249963      0.76878523
C      -0.55517124      0.90320286     -0.43459532
C       2.55260616     -0.07846165      1.49258345
C       3.87411760     -0.50378299      1.31038508
H       3.90012713     -0.67840234     -2.07833380
H       1.59925265      0.06314044     -1.76573903
H      -1.82985430      2.59718119      0.08461180
H      -3.85158235      1.15117033      0.31613769
H      -2.57318455      1.27062856     -2.02049641
H      -3.37894879     -0.30593688     -1.84290541
H      -0.77135509     -0.68915776     -1.97885497
H      -0.79264529     -1.80378730      0.50496853
H      -2.61275468     -0.71553425      1.85744338
H      -0.14773690      1.61559267     -1.16214011
H       2.20233192      0.07598558      2.51163299
H       4.51113322     -0.66420978      2.17591999
