29
O=C(c1ccc(O)c(O)c1)c1c(O)cc(O)cc1O
O       0.47203391      1.97683860      1.23398589
C       0.27147434      0.97377194      0.54550499
C      -1.12071420      0.63780045      0.16210115
C      -1.43081741      0.13409701     -1.11129007
C      -2.75794241     -0.14003150     -1.44970153
C      -3.75872791      0.10637452     -0.52081684
O      -5.05537263     -0.16101906     -0.85413620
C      -3.45771554      0.62798813      0.73563745
O      -4.49747307      0.85787359      1.59409941
C      -2.14207226      0.90337582      1.08587847
C       1.44918192      0.20382582      0.07728687
C       2.62941107      0.90405226     -0.22457353
O       2.74830922      2.26130853     -0.06645360
C       3.75719582      0.24004480     -0.70322424
C       3.71542982     -1.14110517     -0.85038745
O       4.79285941     -1.83867467     -1.31097915
C       2.57400538     -1.86456778     -0.51727445
C       1.44528119     -1.19222440     -0.04380262
O       0.34860787     -1.91733503      0.33153147
H      -0.65314795     -0.04308985     -1.84908471
H      -3.00946812     -0.53554726     -2.42918496
H      -5.57006219      0.09520931     -0.06269768
H      -4.13576894      1.24519939      2.41067055
H      -1.89269724      1.31726831      2.05837816
H       1.99456173      2.56170954      0.49153380
H       4.64878568      0.81155448     -0.94065987
H       5.51583541     -1.21347285     -1.49161346
H       2.58770819     -2.94498058     -0.62513466
H       0.53129891     -2.86624433      0.21800960
