35
CC1(CCN2CCCCC2)NC(=O)NC1=O
C      -2.98555446     -1.41986571     -0.67554099
C      -2.55144358     -0.19209770      0.11638260
C      -1.07224108     -0.17279410      0.53314400
C      -0.07740063     -0.33947466     -0.62694683
N       1.31983363     -0.43240559     -0.15675440
C       1.82724315      0.86682928      0.32011198
C       3.26700291      0.75475217      0.82724270
C       4.19119221      0.18328259     -0.23952459
C       3.62394270     -1.12034094     -0.78461142
C       2.17586697     -0.94598356     -1.24319902
N      -3.39656848     -0.02848619      1.28953498
C      -4.11502010      1.14088033      1.26815152
O      -4.88330771      1.50815905      2.13765664
N      -3.82470842      1.80044132      0.12458963
C      -2.94040774      1.09770911     -0.63294926
O      -2.53075816      1.44712024     -1.73001697
H      -2.75481643     -2.34090259     -0.12929235
H      -4.06686085     -1.41100983     -0.85945745
H      -2.50113862     -1.46598177     -1.65606920
H      -0.90093287     -0.97372224      1.26565733
H      -0.87212611      0.76892603      1.05921229
H      -0.32414380     -1.27285819     -1.14547254
H      -0.18235749      0.47144007     -1.35651389
H       1.77605266      1.62008740     -0.47704749
H       1.22090210      1.23469094      1.15395164
H       3.29324855      0.11219158      1.71659204
H       3.62743985      1.74237794      1.13670851
H       5.19009181      0.01498110      0.17747144
H       4.29983507      0.90669799     -1.05684267
H       3.67305755     -1.89464510     -0.00846823
H       4.23816235     -1.46877198     -1.62262744
H       2.14177399     -0.27707939     -2.11343449
H       1.80977549     -1.92645174     -1.57177410
H      -3.45615797     -0.66472458      2.07453064
H      -4.23947647      2.67702871     -0.13934605
