30
CC(C)c1cccc(C(C)C)c1
C      -2.51990279      1.02625078     -1.56647299
C      -2.52814256      0.10236772     -0.34598642
C      -2.86692398      0.88243885      0.92677804
C      -1.21666091     -0.65033336     -0.20686527
C      -1.20515603     -2.04903822     -0.28595010
C      -0.01061496     -2.75725950     -0.16053695
C       1.18926993     -2.07756538      0.04568437
C       1.21154276     -0.67926292      0.12944810
C       2.52869853      0.04212082      0.35440229
C       2.52699218      0.81816603      1.67385926
C       2.87403600      0.96199862     -0.81938823
C       0.00008178      0.02103967      0.00122202
H      -2.28903324      0.46638747     -2.47963823
H      -3.50054090      1.49572593     -1.70011660
H      -1.77880953      1.82714541     -1.46983659
H      -3.33447196     -0.62704183     -0.50028774
H      -2.88456879      0.21958650      1.79909384
H      -3.85415714      1.34918358      0.84052485
H      -2.14017585      1.67738597      1.12649298
H      -2.12895014     -2.60011594     -0.44632100
H      -0.01479136     -3.84220329     -0.22370430
H       2.10873629     -2.65060305      0.14060876
H       3.32933643     -0.70643385      0.42266311
H       3.51114848      1.26140360      1.86066097
H       1.79212446      1.63054061      1.67113340
H       2.29139730      0.15790963      2.51598442
H       2.88697781      0.40474081     -1.76274239
H       3.86478824      1.40797891     -0.67999253
H       2.15350672      1.78031235     -0.92517661
H       0.00426322      1.10717408      0.06445955
