31
CC(C)c1ccc(-c2ccccc2)cc1
C      -3.94861580     -1.30594368     -0.52072412
C      -3.39985644      0.09281374     -0.22844395
C      -4.05265054      0.68414977      1.02347509
C      -1.88581129      0.08615646     -0.11815776
C      -1.11682956      0.82685701     -1.02479295
C       0.27996468      0.83350784     -0.94084151
C       0.95102927      0.10260786      0.05071274
C       2.42056737      0.11117403      0.13823209
C       3.21419864     -0.21810761     -0.97336980
C       4.60938282     -0.21083222     -0.89104839
C       5.23533234      0.12756440      0.30589965
C       4.46783822      0.45784385      1.41984587
C       3.07275808      0.44887048      1.33595931
C       0.17560666     -0.63673802      0.95614347
C      -1.22125037     -0.64644721      0.87393823
H      -3.75796283     -2.00167788      0.30366472
H      -5.03172035     -1.26873420     -0.68016291
H      -3.49107965     -1.72512982     -1.42381544
H      -3.68545843      0.73357545     -1.07335457
H      -3.86662848      0.07053108      1.91166221
H      -3.66939179      1.69035404      1.22667857
H      -5.13766448      0.75891272      0.89278766
H      -1.59693887      1.41073049     -1.80703418
H       0.84492619      1.42947137     -1.65488866
H       2.74483338     -0.49665754     -1.91478369
H       5.20478364     -0.47229811     -1.76181166
H       6.32011830      0.13387694      0.37051817
H       4.95258585      0.72558606      2.35495564
H       2.49175494      0.72128317      2.21481266
H       0.65876978     -1.22662012      1.73255569
H      -1.78259127     -1.23668034      1.59447509
