45
O=C(O)C(O)C(O)C(=O)O.c1cnc2cc3c(cc2n1)C1CNCC3C1
O       1.99267136     -1.45702307      0.69716701
C       1.63011866     -0.76306934     -0.23656767
O       2.49092732     -0.44692422     -1.23473999
C       0.23283214     -0.21006326     -0.49881395
O       0.22741884      0.81455695     -1.50704529
C      -0.34610606      0.35522265      0.79991911
O       0.06448107      1.71724608      0.96490313
C      -1.86362770      0.21940871      0.76541254
O      -2.68235412      1.12387522      0.72482642
O      -2.27949379     -1.06473397      0.80413989
C       4.34855906      0.62270104     -0.93639277
C       4.38133724     -0.71409842     -0.59542218
N       3.28621120     -1.37943380     -0.16939566
C       2.14626987     -0.66682114     -0.09057988
C       0.98599798     -1.30227665      0.33845570
C      -0.18531727     -0.57626032      0.42511338
C      -0.21857710      0.78023739      0.07912148
C       0.91902380      1.42919877     -0.35825069
C       2.11226328      0.72006146     -0.44432629
N       3.21905051      1.35958938     -0.86802564
C      -1.63279025      1.28834836      0.23234559
C      -2.47896201      0.99587832     -1.02898396
N      -2.41087257     -0.40275777     -1.51448534
C      -2.42021957     -1.39978037     -0.41795062
C      -1.57635491     -1.01348744      0.81945253
C      -2.10330272      0.33388902      1.34408600
H       3.34113124     -0.84710065     -0.94794564
H      -0.35160351     -1.04965244     -0.89102661
H       1.00223989      0.62427980     -2.07583534
H      -0.00670771     -0.18875438      1.68819105
H      -0.19338285      2.16311664      0.13173209
H      -3.25854478     -0.99038471      0.81568327
H       5.23600305      1.14336011     -1.27718426
H       5.29574001     -1.29289776     -0.65578461
H       1.01318775     -2.35566206      0.59722095
H       0.89467543      2.47789872     -0.63566032
H      -1.68148577      2.33585810      0.54204542
H      -2.15705800      1.65086602     -1.84732798
H      -3.52867978      1.24032775     -0.82645734
H      -1.52022740     -0.50661679     -2.00731002
H      -3.45988054     -1.56547256     -0.11081865
H      -2.05892801     -2.35097718     -0.82662557
H      -1.58042678     -1.78591089      1.59334185
H      -1.63578931      0.59053254      2.30535692
H      -3.18944718      0.34370618      1.48698450
