26
O=C(c1ccccc1)c1cccc(N=C=S)c1
O      -0.13355770      1.95085242     -1.38303213
C      -0.29869609      0.98131580     -0.64737966
C      -1.66022471      0.67049843     -0.14366576
C      -2.09495483     -0.64829190      0.03717784
C      -3.38797286     -0.89680392      0.50259591
C      -4.24967476      0.16594441      0.77554107
C      -3.82624343      1.47970171      0.57570340
C      -2.53524207      1.73308203      0.11045946
C       0.87526900      0.15125799     -0.28175913
C       1.00904817     -0.41113096      0.99278594
C       2.13253942     -1.17964778      1.29724501
C       3.12910194     -1.36885959      0.33752256
C       3.02740568     -0.77415134     -0.92759698
N       4.02520858     -0.98704812     -1.89320128
C       4.84946953     -0.14961706     -1.86893841
S       6.13237171      1.11349456     -1.84209012
C       1.88693647     -0.02318716     -1.23428683
H      -1.44956377     -1.49064578     -0.19734198
H      -3.72868745     -1.91996784      0.64254373
H      -5.25790420     -0.02998231      1.13305388
H      -4.50300427      2.30701123      0.77494877
H      -2.21252940      2.75917542     -0.05525606
H       0.25479156     -0.25081619      1.75956482
H       2.23576416     -1.62872692      2.28242526
H       3.99622987     -1.97985672      0.57914673
H       1.78411944      0.42639959     -2.22029118
