32
CC(NC(=O)COC(=O)c1ccccc1)C(N)=O
C       3.13792224      1.89270795     -1.48393977
C       2.98253422      0.53679778     -0.81154765
N       1.74225759     -0.10456014     -1.22347183
C       1.66842351     -1.48217610     -1.31506706
O       2.65658606     -2.20968626     -1.35239005
C       0.24364835     -2.01442942     -1.41891411
O      -0.60954663     -1.19319178     -0.61341645
C      -1.91368499     -1.55270672     -0.64304182
O      -2.38855093     -2.45122564     -1.31796667
C      -2.71071615     -0.67623415      0.25673284
C      -4.10816540     -0.76590234      0.19894917
C      -4.89916992      0.03591994      1.02414428
C      -4.29912899      0.92762179      1.91242559
C      -2.90910232      1.01833259      1.98007993
C      -2.11330760      0.21860955      1.15630819
C       2.93282500      0.71623564      0.71639465
N       4.13874285      0.89352740      1.33427869
O       1.88599812      0.76801439      1.35969554
H       2.31449380      2.56543082     -1.21779393
H       3.14263077      1.78745145     -2.57404903
H       4.07231589      2.37788240     -1.18291024
H       3.83373840     -0.10435434     -1.06567241
H       0.89257602      0.32446343     -0.86430857
H      -0.06265443     -1.97815886     -2.46975649
H       0.22908223     -3.04162776     -1.03933382
H      -4.58583632     -1.46079754     -0.48934226
H      -5.98288773     -0.03707094      0.97487319
H      -4.91560672      1.55045513      2.55628129
H      -2.44172667      1.70947070      2.67780915
H      -1.03114425      0.30064633      1.23742089
H       4.98621501      0.53743860      0.91093439
H       4.11123902      0.91111611      2.34659949
