43
CC1(c2cccc(-c3cccnc3)c2)N=C(N)C(c2ccccc2)=N1
C       0.81921969      2.20717214     -2.12175697
C       0.69191748      0.75041652     -1.65727293
C      -0.78654079      0.36216889     -1.59232023
C      -1.45011542     -0.14385152     -2.72009952
C      -2.80251351     -0.47718236     -2.66304885
C      -3.51626945     -0.30445678     -1.47649349
C      -2.89467201      0.20778842     -0.32738906
C      -3.64408361      0.38873361      0.92465705
C      -4.87015724      1.06492027      0.96485905
C      -5.55226006      1.21731909      2.17113104
C      -4.98766365      0.68456428      3.31701661
N      -3.81218519      0.02409673      3.33374471
C      -3.17413491     -0.10524412      2.14340536
C      -1.53024777      0.54112836     -0.40952375
N       1.43575115     -0.10235025     -2.62523727
C       2.35890235     -0.66180929     -1.91921836
N       3.21038660     -1.60142618     -2.41956939
C       2.32785762     -0.17370391     -0.51163781
C       3.27494822     -0.55892573      0.54206759
C       2.81254916     -0.63617296      1.86112979
C       3.68510850     -0.99922896      2.88787409
C       5.02205815     -1.27300768      2.60154989
C       5.49102516     -1.17526638      1.29137541
C       4.62077984     -0.81346105      0.26053807
N       1.34071325      0.64208717     -0.32226307
H       1.87085529      2.51284082     -2.17538500
H       0.31308925      2.89312889     -1.43245987
H       0.38527796      2.35006040     -3.11826466
H      -0.90877795     -0.28019685     -3.65446942
H      -3.29981052     -0.87426591     -3.54397079
H      -4.56707121     -0.58555770     -1.45285581
H      -5.29385284      1.48973271      0.05790038
H      -6.49910084      1.74341356      2.21398969
H      -5.48031198      0.77893634      4.28033923
H      -2.23498015     -0.65095110      2.19903319
H      -1.03057563      0.96335029      0.46240907
H       3.43223838     -2.36274432     -1.78675127
H       2.88884633     -1.94271954     -3.32112392
H       1.77240833     -0.41533990      2.09325160
H       3.32253619     -1.06157256      3.91114692
H       5.70251332     -1.54961130      3.40356739
H       6.53940671     -1.36803322      1.07582192
H       5.01693579     -0.70477892     -0.74569660
