32
CCn1cc(C(=O)OC)c(=O)c2ccc(C)nc21
C      -1.63696557     -2.86955967      0.39567403
C      -1.06234166     -1.92556533      1.44271724
N      -0.22974015     -0.89042350      0.81993968
C       1.12615192     -1.04142166      0.59396815
C       1.92877496     -0.14846879     -0.00563931
C       3.35086813     -0.50439532     -0.17472211
O       3.92471931     -1.34387246      0.50765629
O       3.90538179      0.17048081     -1.20873777
C       5.28467477     -0.11909645     -1.43332629
C       1.30617666      1.12424276     -0.44427221
O       1.95489337      2.05514727     -0.91060264
C      -0.15948915      1.26842548     -0.28000807
C      -0.80730799      2.41534909     -0.74529540
C      -2.18126724      2.53165577     -0.57919650
C      -2.86265632      1.49692379      0.04856676
C      -4.34651438      1.58480593      0.24663725
N      -2.24154224      0.38123652      0.50574565
C      -0.89931300      0.26086175      0.34766908
H      -2.22818135     -3.65418157      0.87805516
H      -0.83957863     -3.35044103     -0.18067187
H      -2.28632512     -2.34090727     -0.30925257
H      -1.86586587     -1.49407926      2.05216694
H      -0.45263021     -2.51014040      2.14386707
H       1.51858711     -1.99323406      0.94915707
H       5.63056482      0.50140917     -2.26461548
H       5.41441021     -1.17054912     -1.70797291
H       5.87866756      0.12658167     -0.54739089
H      -0.24596439      3.20930792     -1.23188334
H      -2.70512469      3.41386085     -0.93338501
H      -4.85260840      1.67017322     -0.71995837
H      -4.59493301      2.45522426      0.86175399
H      -4.72552123      0.69064963      0.75202523
