16
N#CCc1ccccc1
N       3.30228093     -0.62136868      1.45345401
C       2.70610320     -0.27559380      0.51876265
C       1.98226223      0.16882083     -0.68124870
C       0.48286743      0.09094670     -0.52163001
C      -0.23606679      1.17956324     -0.00543604
C      -1.62021917      1.10031992      0.15570807
C      -2.29828173     -0.06653187     -0.19102984
C      -1.59367466     -1.15726612     -0.69636810
C      -0.20947816     -1.08178258     -0.85893197
H       2.26771941      1.19907063     -0.92730938
H       2.28694114     -0.43584409     -1.54438099
H       0.27540562      2.09700549      0.27912729
H      -2.17011489      1.94807143      0.55683655
H      -3.37583432     -0.12795032     -0.06186964
H      -2.12287377     -2.06975109     -0.95960111
H       0.32296354     -1.94770968     -1.24746309
