30
Cc1cc(C(=O)NNCc2ccccc2)no1
C      -6.54819254     -0.48261094      0.05495316
C      -5.10155558     -0.21280611      0.12197227
C      -3.98823771     -0.99134603      0.31067412
C      -2.90235124     -0.08072155      0.26356523
C      -1.48055811     -0.38765027      0.41038402
O      -1.06014624     -1.52848720      0.59906955
N      -0.64832305      0.72368632      0.32014269
N       0.74013881      0.60762738      0.56924946
C       1.49050087      0.54433875     -0.69101000
C       2.95946183      0.31461793     -0.43055827
C       3.79310998      1.38250285     -0.06811713
C       5.14820197      1.16795780      0.18833233
C       5.68175656     -0.11595528      0.09230961
C       4.86064371     -1.18715704     -0.25541995
C       3.50501496     -0.97485365     -0.51216672
N      -3.34268522      1.17415469      0.05768915
O      -4.72031936      1.08273645     -0.03004393
H      -6.75539158     -1.54899893      0.18739571
H      -7.07769312      0.06699328      0.83918687
H      -6.95122306     -0.17543966     -0.91493316
H      -3.94593804     -2.06007173      0.46257755
H      -1.08066162      1.64618096      0.27109119
H       0.89606129     -0.28078134      1.06287621
H       1.36790382      1.48013888     -1.25091988
H       1.10340696     -0.25838062     -1.33203543
H       3.38441241      2.38663623      0.02248986
H       5.78584260      2.00229388      0.46820692
H       6.73642207     -0.28263631      0.29439868
H       5.27518047     -2.18956782     -0.32306085
H       2.87521814     -1.82240092     -0.77441114
