24
Cc1cc(C)c(N)c(S(=O)(=O)O)c1
C      -0.82054682      3.19960572      0.52760791
C      -0.46121905      1.76849226      0.25501750
C      -1.36024902      0.92262888     -0.40611007
C      -1.05732511     -0.43173686     -0.64734530
C      -2.08373274     -1.28309219     -1.34639378
C       0.19130063     -0.94623724     -0.24481509
N       0.47187312     -2.33683870     -0.36176892
C       1.05383640     -0.10343927      0.47944853
S       2.61333368     -0.72125911      1.06395036
O       2.32813625     -1.50131030      2.25035330
O       3.55501089      0.37829399      1.08050085
O       3.08834948     -1.75201348     -0.08995155
C       0.74577634      1.24195518      0.71479589
H       0.07637685      3.82647036      0.57013970
H      -1.35190945      3.27678440      1.48112378
H      -1.45843276      3.59979082     -0.26745818
H      -2.31868528      1.32538480     -0.73317663
H      -3.01164369     -0.73066980     -1.52891934
H      -2.33859461     -2.15351753     -0.73322730
H      -1.70019006     -1.61672568     -2.31586225
H      -0.04224668     -2.74983294     -1.14328152
H       0.14035222     -2.80694439      0.49082585
H       2.29414070     -2.28099937     -0.35286923
H       1.44628871      1.87521045      1.25741550
