21
N#Cc1c[nH]cc1-c1cccc(Cl)c1Cl
N      -1.05281667      3.55654392     -0.19201370
C      -1.39353474      2.44837356     -0.13400031
C      -1.81506330      1.08229896     -0.08022225
C      -3.12782473      0.65548354     -0.08480168
N      -3.12932168     -0.71528754     -0.03050208
C      -1.83577326     -1.17235829     -0.00329770
C      -0.99379378     -0.07693677     -0.02135670
C       0.45384216     -0.19713402      0.00742000
C       1.10673208     -0.55283357     -1.18406543
C       2.49505623     -0.67057728     -1.22316012
C       3.24281620     -0.43490240     -0.07158151
C       2.60574581     -0.08164932      1.12327139
Cl      3.61430165      0.18463135      2.50442559
C       1.20803660      0.04092573      1.17311347
Cl      0.41385025      0.46508978      2.66025616
H      -4.05861914      1.20726541     -0.11867569
H      -3.95641700     -1.30002577     -0.01301539
H      -1.62965140     -2.23444737      0.04014252
H       0.53289721     -0.73446306     -2.09156019
H       2.99341814     -0.94270119     -2.15088710
H       4.32611937     -0.52729567     -0.10948927
