50
Nc1c(-c2nc3cc4c(cc3o2)C(=O)c2ccccc2C4=O)ccc2c1C(=O)c1ccccc1C2=O
N      -2.04750212     -0.57147088     -1.66723305
C      -2.52815682     -0.13054626     -0.41075595
C      -1.61055794      0.13323892      0.64160268
C      -0.16466205      0.19255814      0.39344169
N       0.48452665      0.30460799     -0.75556890
C       1.80524777      0.31138278     -0.39173303
C       2.97134195      0.40124169     -1.16054894
C       4.20983179      0.38335958     -0.48917064
C       4.27473206      0.27934873      0.90626636
C       3.10940333      0.18925455      1.68773954
C       1.91251048      0.21012181      0.98454450
O       0.65254875      0.13802612      1.49803585
C       5.58512349      0.26291727      1.58975509
O       5.64059051      0.17689959      2.81080396
C       6.82140377      0.35155082      0.78884488
C       8.06626235      0.33168892      1.43110593
C       9.24060939      0.41544103      0.68120219
C       9.17566865      0.51910693     -0.70788749
C       7.93626893      0.53922990     -1.34972544
C       6.75644483      0.45513780     -0.59905796
C       5.45058189      0.47762575     -1.28629619
O       5.39352052      0.57420951     -2.50626947
C      -2.10395096      0.37023123      1.93703330
C      -3.47048990      0.31892050      2.20621709
C      -4.37591106      0.03583501      1.18022152
C      -3.91819297     -0.18648239     -0.12134673
C      -4.91690889     -0.43315727     -1.19811800
O      -4.58707383     -0.45936207     -2.38048003
C      -6.33981246     -0.61284269     -0.84818319
C      -7.26193079     -0.96396966     -1.84366747
C      -8.61158928     -1.12318490     -1.52412028
C      -9.04533892     -0.92908506     -0.21350500
C      -8.12985116     -0.57563600      0.77876866
C      -6.77473525     -0.41867930      0.45881062
C      -5.81417959     -0.04073205      1.50880844
O      -6.20370633      0.19735255      2.64629741
H      -2.73872082     -0.47147376     -2.41949254
H      -1.12855443     -0.19884382     -1.91631839
H       2.90972003      0.48121334     -2.24185281
H       3.13337961      0.10749250      2.76871699
H       8.12585510      0.25100687      2.51531654
H      10.20658790      0.39973189      1.18147758
H      10.09084023      0.58435736     -1.29257442
H       7.89438272      0.62043028     -2.43478206
H      -1.42261949      0.59118205      2.75781369
H      -3.82270496      0.49505660      3.22196165
H      -6.93301215     -1.11387545     -2.87075342
H      -9.32430396     -1.39654695     -2.29921159
H     -10.09707820     -1.05102351      0.03619494
H      -8.47583840     -0.42284602      1.79973077
