18
O=C(O)c1cccc([N+](=O)[O-])c1O
O       2.52245155     -1.39843503      0.97502425
C       2.26842837     -0.31948143      0.46689009
O       3.22243394      0.58787010      0.20799316
C       0.90638465      0.11410806      0.08058833
C       0.69225001      1.37743908     -0.50089896
C      -0.59489340      1.78993489     -0.86017856
C      -1.67933666      0.94297989     -0.64686434
C      -1.45583285     -0.31506952     -0.07400517
N      -2.59960253     -1.17765917      0.12464866
O      -3.41186522     -0.83465262      0.99525102
O      -2.71601855     -2.14906010     -0.63444001
C      -0.18142396     -0.74567886      0.30138403
O      -0.03812925     -1.97672056      0.88488144
H       4.05748276      0.17097005      0.51008009
H       1.52689495      2.05437567     -0.67668063
H      -0.74707286      2.77115860     -1.30570325
H      -2.68260721      1.25950089     -0.92455901
H       0.91045623     -2.15157994      1.07658885
