30
CCc1nc2c(c(=O)n(C)c(=O)n2C)n1C
C      -3.89323339      0.86127511      0.52807539
C      -3.04146952      0.98628136     -0.72472589
C      -1.61670823      0.62302882     -0.46084701
N      -0.66068183      1.49332603     -0.17628044
C       0.46504193      0.74863734     -0.01949439
C       0.22471695     -0.57686472     -0.20185025
C       1.23730768     -1.57035546     -0.09764151
O       1.01678098     -2.76568512     -0.27000148
N       2.49101077     -1.03702601      0.21632708
C       3.60867281     -1.95054970      0.35071097
C       2.77727492      0.33037278      0.40943038
O       3.92229063      0.70697353      0.67743317
N       1.71647996      1.22690594      0.28373505
C       1.92536569      2.65135564      0.46705296
N      -1.11306301     -0.66410128     -0.48137864
C      -1.82567390     -1.89239154     -0.73922287
H      -3.90310612     -0.16673921      0.90513117
H      -4.92611780      1.15413442      0.31484248
H      -3.51536203      1.50694273      1.32833394
H      -3.08068703      2.02355595     -1.07874729
H      -3.45719473      0.37165088     -1.53011560
H       3.31876189     -2.99440421      0.20792674
H       4.37119648     -1.68927296     -0.39043189
H       4.04412569     -1.83717342      1.34898571
H       2.96595911      2.88326513      0.70848312
H       1.65636902      3.17361942     -0.45658469
H       1.29017546      3.00349871      1.28606154
H      -2.89174473     -1.70018790     -0.86498060
H      -1.68232541     -2.56213870      0.11272941
H      -1.42416227     -2.33793353     -1.65295655
