26
COC(Cc1ccccc1)OC
C      -3.29325127      0.77067887     -1.67474134
O      -2.25045725     -0.18904248     -1.75048167
C      -1.27147052     -0.01443337     -0.71796362
C      -0.15059879     -1.03287003     -0.98743321
C       1.12390419     -0.72766747     -0.23471249
C       2.06994919      0.15830456     -0.76802322
C       3.23690945      0.45406199     -0.06187245
C       3.46745240     -0.12997410      1.18247711
C       2.53186183     -1.01056963      1.72225072
C       1.36481107     -1.30818000      1.01771055
O      -1.85226718     -0.28309718      0.56052169
C      -1.66814834      0.78778490      1.47483622
H      -3.87660326      0.64020880     -0.75870212
H      -2.88965197      1.78655642     -1.72508097
H      -3.95931911      0.62021381     -2.52876913
H      -0.87600680      1.00869682     -0.78570685
H       0.07495550     -1.06575245     -2.06166901
H      -0.49304341     -2.04425936     -0.73129739
H       1.90607092      0.61951257     -1.73946441
H       3.96835198      1.13822288     -0.48402749
H       4.37742380      0.09909470      1.73067267
H       2.71060343     -1.46710724      2.69220338
H       0.63836411     -1.99240721      1.45220662
H      -2.11310086      0.50248858      2.43182711
H      -2.17179636      1.68939728      1.11305350
H      -0.60494274      0.99013832      1.63218580
