74
CCCCCCCCCCCCCCCCCC(=O)NCCCN(C)C
C       9.08100069     -0.87140492      4.69254886
C       8.19339891      0.04595110      3.86578121
C       8.05520538     -0.38599257      2.40340104
C       7.32420700     -1.72008573      2.23276395
C       7.17331576     -2.15009400      0.76908572
C       6.38786773     -1.19426841     -0.13489761
C       4.96220539     -0.92932336      0.35272646
C       4.18144477     -0.06784978     -0.64420129
C       2.76106681      0.19948149     -0.14179803
C       1.96000775      1.14921201     -1.03769083
C       1.63651342      0.55863402     -2.41201561
C       0.80097815      1.49127399     -3.29672800
C      -0.56431779      1.90994489     -2.73845324
C      -1.49375401      0.72846684     -2.45059835
C      -2.84621933      1.14608701     -1.86378978
C      -3.72250787      1.93491942     -2.84299223
C      -5.10568666      2.22971415     -2.26093134
C      -6.00353255      1.00674641     -2.19967247
O      -5.79435780     -0.02408522     -2.82879626
N      -7.10046656      1.18574532     -1.38277171
C      -8.06104252      0.12600848     -1.15061521
C      -7.55224605     -0.94922717     -0.18665526
C      -7.33592142     -0.39654970      1.22983565
N      -6.86826317     -1.34737980      2.24897506
C      -7.82535154     -2.41847011      2.51070112
C      -5.54670512     -1.89194279      1.94648869
H      10.06336680     -0.99445948      4.22554773
H       9.23132748     -0.44767643      5.69108488
H       8.62971817     -1.86019053      4.81877478
H       8.62124714      1.05560467      3.88856439
H       7.20268534      0.11166336      4.33073858
H       7.50757066      0.40401639      1.87727329
H       9.04833384     -0.44658449      1.94187015
H       7.87984469     -2.51047461      2.75074136
H       6.34061741     -1.67066593      2.71356062
H       6.68573661     -3.13313457      0.74888228
H       8.17138309     -2.29428184      0.33654520
H       6.92777416     -0.24606846     -0.23944596
H       6.34757649     -1.63527616     -1.13917885
H       4.98747036     -0.41786902      1.32156501
H       4.44071929     -1.88283875      0.50029695
H       4.14927833     -0.57943360     -1.61234617
H       4.70455801      0.88394517     -0.79493705
H       2.81571434      0.64380039      0.86000300
H       2.22044106     -0.74890431     -0.03602641
H       2.50565540      2.09276425     -1.15783015
H       1.02843276      1.38554517     -0.51157251
H       2.56893627      0.34663294     -2.94792812
H       1.12604784     -0.40371822     -2.29398026
H       1.38310802      2.39896875     -3.50018617
H       0.64903090      1.00065882     -4.26655206
H      -1.03132812      2.57164137     -3.47723680
H      -0.43111354      2.50951056     -1.83092542
H      -1.65225038      0.14848831     -3.36768972
H      -1.01874956      0.05633999     -1.72715116
H      -3.37196574      0.23529139     -1.55336397
H      -2.68414535      1.73819546     -0.95452441
H      -3.24132822      2.89219055     -3.07254821
H      -3.81519502      1.38642355     -3.78794785
H      -5.00684826      2.66466483     -1.25946965
H      -5.61167176      2.96489882     -2.89825454
H      -7.18565651      2.04305568     -0.85175604
H      -8.29895807     -0.33636618     -2.11539252
H      -8.97505876      0.59118309     -0.76644753
H      -8.29366480     -1.75569767     -0.16269803
H      -6.62111981     -1.37636035     -0.57439180
H      -6.62003932      0.43449429      1.19084492
H      -8.27279302      0.05295769      1.58408288
H      -7.93976593     -3.09956739      1.66101223
H      -7.50602897     -3.01072566      3.37562234
H      -8.80929557     -2.00704390      2.76102437
H      -5.16636388     -2.45977786      2.80325375
H      -5.55281851     -2.55795488      1.07698839
H      -4.82725466     -1.08632858      1.76180369
