28
Cc1ccc(C(C)(C)C)c(O)c1
C       4.11119022      0.34723206     -0.56248664
C       2.63162656      0.26252499     -0.33736676
C       2.06915675      0.69871377      0.86084175
C       0.69027628      0.59041666      1.08377244
C      -0.17953721      0.03399731      0.12535668
C      -1.69760912     -0.07623720      0.38686602
C      -2.13197614      0.48356778      1.76614702
C      -2.14282492     -1.55530359      0.36186616
C      -2.48688435      0.72609846     -0.67150186
C       0.41655084     -0.41321827     -1.06943310
O      -0.35744967     -0.97405682     -2.04875078
C       1.79537350     -0.30773149     -1.29841471
H       4.59635080     -0.56872477     -0.21150103
H       4.33726733      0.48306567     -1.62535199
H       4.53999956      1.20164669     -0.02828407
H       2.69693731      1.13019727      1.63772938
H       0.32206567      0.95618790      2.03812882
H      -1.89007423      1.54833043      1.86484986
H      -1.65317646     -0.05686914      2.59115652
H      -3.21536056      0.38793607      1.90894317
H      -2.02055483     -2.01945054     -0.62084419
H      -3.20343027     -1.65222204      0.62293401
H      -1.56781214     -2.15115504      1.08060878
H      -2.37512673      0.32231570     -1.68171201
H      -2.15860444      1.77196629     -0.69729348
H      -3.56093610      0.72019927     -0.45053066
H       0.20740765     -1.22046577     -2.79807308
H       2.22715469     -0.66896162     -2.22765625
