17
O=Cc1cccc2c1OC(F)(F)O2
O      -2.94723205     -1.97698718     -0.10020038
C      -1.72650753     -1.87465969     -0.08198721
C      -1.06384497     -0.56121179     -0.03121118
C      -1.81447752      0.62164563     -0.00190621
C      -1.16983456      1.86988829      0.04652756
C       0.22510831      1.94617146      0.06600840
C       0.93652571      0.76346954      0.03623309
C       0.31409919     -0.46560873     -0.01130889
O       1.20887712     -1.49108158     -0.03373948
C       2.44301405     -0.75872165      0.00511482
F       3.14194129     -1.15488572      1.09585367
F       3.16861152     -1.08377208     -1.09170175
O       2.29315159      0.66493580      0.04956773
H      -1.07497437     -2.76420826     -0.10295862
H      -2.90283545      0.57832011     -0.01657776
H      -1.76392155      2.78163299      0.06892503
H       0.73229922      2.90507286      0.10336117
