24
CCC1OC(=O)c2cc([N+](=O)[O-])ccc21
C      -3.74731023     -0.14133601     -0.55380569
C      -2.27529254     -0.52206014     -0.63532696
C      -1.44896402      0.15352548      0.45853003
O      -1.47209068      1.58954442      0.27369275
C      -0.22368726      2.11605968      0.10776455
O       0.05953343      3.28255602     -0.06977283
C       0.71127295      1.00302717      0.18712452
C       2.09138639      1.03712756      0.08264256
C       2.76388789     -0.18541198      0.19438381
N       4.22873936     -0.21826020      0.09266773
O       4.78724084     -1.31922203      0.19672128
O       4.81682472      0.85589343     -0.09085334
C       2.05471200     -1.38968918      0.40484709
C       0.65808129     -1.37892759      0.50452171
C      -0.00009220     -0.16457833      0.38868138
H      -4.31448285     -0.65932038     -1.33367507
H      -4.17054546     -0.42140944      0.41608388
H      -3.88869948      0.93488835     -0.69381923
H      -2.18443072     -1.61204890     -0.55975830
H      -1.90139382     -0.23257962     -1.62564754
H      -1.84453179     -0.06401991      1.45698115
H       2.60653518      1.98021299     -0.07829827
H       2.58112684     -2.33965165      0.49326933
H       0.11218018     -2.30431975      0.66954182
