28
OCCOc1ccc(OCCO)cc1
O      -4.82232725      2.42328107     -1.02914189
C      -4.24949188      2.72894066      0.24117474
C      -3.23590503      1.65826892      0.63556737
O      -2.16779559      1.70330548     -0.31813061
C      -1.12979615      0.83469106     -0.12733696
C      -1.02984545     -0.11763957      0.88441190
C       0.09763172     -0.94347774      0.95799629
C       1.13189746     -0.83147982      0.02615374
O       2.17101601     -1.69879902      0.21770737
C       3.22598464     -1.67182574     -0.75094402
C       4.24560605     -2.73439288     -0.35059863
O       4.84215944     -2.39936501      0.90144272
C       1.03227540      0.12113256     -0.98507770
C      -0.09483186      0.94742596     -1.05835740
H      -4.07116174      2.24937402     -1.62757328
H      -5.05909500      2.78364980      0.97428639
H      -3.77230297      3.71074617      0.16276507
H      -2.85722969      1.87330773      1.64102896
H      -3.71564837      0.67332238      0.60042323
H      -1.80611094     -0.25028680      1.62992508
H       0.16768209     -1.68386740      1.75178560
H       2.83237602     -1.90513163     -1.74638348
H       3.70666130     -0.68688042     -0.74108031
H       5.04195783     -2.80691750     -1.09663220
H       3.76992076     -3.71384511     -0.23996885
H       4.10283925     -2.20464001      1.50821991
H       1.80779370      0.25294300     -1.73173252
H      -0.16425974      1.68815986     -1.85166124
