34
CCN(CC)c1nc(Cl)nc(NC(C)C)n1
C      -4.17410137      1.01898717      1.04626884
C      -3.46494179      0.94504301     -0.29833177
N      -2.28803997      0.08984783     -0.22777335
C      -2.42886240     -1.34010530     -0.46409122
C      -1.99228369     -1.69563289     -1.87766961
C      -1.09144471      0.59633305      0.23780200
N      -1.01924461      1.88129828      0.54409441
C       0.16867663      2.27160597      0.97603118
Cl      0.30743853      3.92813168      1.37814703
N       1.26429276      1.54869017      1.12399512
C       1.09615974      0.28403082      0.79500762
N       2.14341195     -0.61603920      0.90228293
C       3.49723916     -0.11364113      0.70891020
C       4.47320749     -1.16915705      1.23026883
C       3.76695259      0.16470249     -0.76980164
N      -0.04690650     -0.22456626      0.34995390
H      -4.47612823      0.02376039      1.38875652
H      -3.53026438      1.45571493      1.81630209
H      -5.07309529      1.63804204      0.96581503
H      -3.21175245      1.95295824     -0.64924870
H      -4.16320230      0.54423000     -1.04377415
H      -1.86858708     -1.93303142      0.26918995
H      -3.47764213     -1.63750191     -0.33984849
H      -2.13424923     -2.76535414     -2.06027328
H      -0.93594624     -1.46071765     -2.04274277
H      -2.57755869     -1.14221640     -2.61967260
H       1.89378235     -1.44169621      0.36896465
H       3.66454110      0.80138246      1.29057463
H       5.50899035     -0.83066663      1.12226411
H       4.29301459     -1.37299664      2.29164154
H       4.36550851     -2.11621359      0.68935832
H       3.60560798     -0.73112516     -1.38001993
H       4.79944757      0.49721271     -0.92039870
H       3.10597978      0.94869035     -1.15421949
