25
Cc1ccc(-c2ccccc2)cc1
C       4.39528387      0.09579952      0.04544488
C       2.89753058      0.03801427     -0.00143885
C       2.20061894      0.56524487     -1.09259099
C       0.80232405      0.53977577     -1.12066582
C       0.06488008     -0.00370486     -0.05713811
C      -1.40681419     -0.03050495     -0.08820798
C      -2.14810992      1.14131826     -0.31456066
C      -3.54522810      1.11666243     -0.34351975
C      -4.22551745     -0.08241055     -0.14744623
C      -3.51041167     -1.25578591      0.07798624
C      -2.11335792     -1.22897366      0.10777517
C       0.77547031     -0.51714985      1.03911788
C       2.17368316     -0.49194975      1.07066661
H       4.82043521      0.03155956     -0.96170519
H       4.80067478     -0.74195438      0.62256185
H       4.71933061      1.03345725      0.50730860
H       2.73964193      0.99741459     -1.93258533
H       0.28796606      0.94210915     -1.99112614
H      -1.63627068      2.09074521     -0.45859759
H      -4.09976230      2.03515794     -0.51659380
H      -5.31182008     -0.10241753     -0.17029651
H      -4.03753467     -2.19420604      0.22832969
H      -1.57335649     -2.15898938      0.27401879
H       0.23908294     -0.93063829      1.89087385
H       2.69126097     -0.88857368      1.94113094
