30
CC1(C)CC(O)CC(C)(C)N1[O]
C      -1.91390635     -1.44679739     -1.31339476
C      -1.10161533     -0.70793532     -0.21009486
C      -1.64617013     -1.19216794      1.15723510
C      -1.43850126      0.79390491     -0.38006333
C      -0.51861820      1.69712456      0.42685845
O      -0.84451246      3.06885205      0.15251680
C       0.92963637      1.44049933      0.03979967
C       1.34435390     -0.04008953      0.22356708
C       1.58524411     -0.30986498      1.73015366
C       2.71950929     -0.18169188     -0.49190419
N       0.34884447     -0.90592771     -0.45712920
O       0.69471385     -2.28952828     -0.27716337
H      -1.84341277     -2.53644495     -1.22037043
H      -2.97829239     -1.18835376     -1.25602369
H      -1.56611830     -1.17165912     -2.31655633
H      -2.73486745     -1.06245755      1.20211050
H      -1.45306588     -2.25673997      1.32737936
H      -1.23839144     -0.63705075      2.00215478
H      -2.48181732      0.99669278     -0.10281155
H      -1.36919841      1.07886644     -1.44036802
H      -0.66949167      1.55266489      1.50029571
H      -0.70765311      3.18823056     -0.80330247
H       1.58397663      2.10681425      0.61804121
H       1.07286477      1.74564628     -1.00739821
H       2.38685543      0.33597077      2.11017644
H       0.71063728     -0.10488860      2.34771001
H       1.90022713     -1.34115844      1.92190500
H       2.62415836     -0.02752748     -1.57363142
H       3.43390429      0.56241514     -0.11914558
H       3.17070659     -1.16739832     -0.33139880
