22
Clc1ccc(-c2ccc(Cl)cc2)cc1
Cl     -5.13647253     -1.10038437      0.34177039
C      -3.46029704     -0.74129705      0.19997043
C      -2.59100503     -1.07139554      1.23560390
C      -1.22830389     -0.77923583      1.11841992
C      -0.71724791     -0.15365669     -0.03208602
C       0.71724769      0.15365464     -0.15343918
C       1.68883721     -0.84719984      0.02119416
C       3.05211667     -0.55707844     -0.09431690
C       3.46029716      0.74129888     -0.38547768
Cl      5.13647350      1.10038817     -0.52726358
C       2.51818611      1.75040229     -0.56241827
C       1.15566336      1.45657425     -0.44735006
C      -1.61619721      0.16985870     -1.06330860
C      -2.97929762     -0.12192669     -0.94989483
H      -2.96343396     -1.55217470      2.13613909
H      -0.56475511     -1.03414070      1.94292433
H       1.38720773     -1.87046213      0.23807046
H       3.78467271     -1.34813179      0.04137797
H       2.83327168      2.76589130     -0.78673434
H       0.43324006      2.26045323     -0.57760059
H      -1.25569422      0.64414476     -1.97444624
H      -3.65450938      0.13441755     -1.76180194
