45
CO/N=C(/C)c1cccc(Oc2nc(OC)cc(OC)n2)c1C(=O)OC
C      -5.25818836     -1.09533995      0.46240406
O      -4.10996235     -0.55684000     -0.18087020
N      -4.05979717      0.82015677      0.08591970
C      -2.98591061      1.36268371     -0.40492060
C      -2.77389120      2.84390322     -0.22541012
C      -1.94527818      0.63207871     -1.15689019
C      -2.00406299      0.66952376     -2.55569742
C      -1.07044991     -0.04513017     -3.30534944
C      -0.07997761     -0.78684713     -2.65985849
C      -0.01212713     -0.80521037     -1.26088923
O       0.98986483     -1.56108596     -0.69913164
C       2.06881393     -0.86059334     -0.16877009
N       3.03724974     -1.62851405      0.34604737
C       4.07928791     -0.96934547      0.87704580
O       5.13114790     -1.67427933      1.43066910
C       4.95455748     -3.08669436      1.37403055
C       4.18339061      0.39768171      0.91539607
C       3.12824448      1.07770329      0.36535608
O       3.20471756      2.45628936      0.39607252
C       1.99465312      3.09262205     -0.00635675
N       2.06657759      0.48118993     -0.19700272
C      -0.96292669     -0.11362614     -0.49778344
C      -0.92048590     -0.11407533      0.97312096
O      -0.89814985      0.90048822      1.65001530
O      -0.92994151     -1.39366168      1.41747232
C      -0.90947247     -1.50575356      2.83963658
H      -6.16655738     -0.62548259      0.07305093
H      -5.19001246     -0.94767571      1.54459348
H      -5.29925789     -2.16780982      0.25515950
H      -3.54826082      3.38683861     -0.77489723
H      -2.84902701      3.09442745      0.83677542
H      -1.79177460      3.15562708     -0.59150838
H      -2.78709699      1.23243947     -3.05861596
H      -1.11788740     -0.03098326     -4.39189266
H       0.64650670     -1.34476847     -3.24645763
H       4.89936627     -3.43813677      0.33790523
H       5.83105405     -3.55065303      1.83657363
H       4.07251783     -3.39914370      1.94375607
H       5.03147384      0.90199350      1.35396880
H       2.13448362      4.17249791      0.10168597
H       1.15762331      2.79892248      0.63647142
H       1.77179519      2.88936547     -1.05950793
H       0.00327765     -1.05882744      3.24626793
H      -1.79818156     -1.03730633      3.27416394
H      -0.91792558     -2.56864875      3.09618342
