49
CCN(CC)c1ccc(N=Nc2c(Cl)cc([N+](=O)[O-])cc2[N+](=O)[O-])c(NC(C)=O)c1
C      -5.39991627     -0.08962582     -1.14684770
C      -4.85160095      0.72034872      0.01939516
N      -3.76864101      1.61452864     -0.42014590
C      -4.18179278      2.96842792     -0.81118398
C      -4.11488697      3.92350927      0.37200631
C      -2.44020241      1.19941366     -0.45746823
C      -1.39049384      2.08437223     -0.74525749
C      -0.05397499      1.67081131     -0.78161744
C       0.29267675      0.34401064     -0.51902926
N       1.64650826     -0.05012927     -0.59979373
N       2.27198193      0.34459471      0.41033201
C       3.64158071      0.03791037      0.27662647
C       4.54268843      0.97129552     -0.26926091
Cl      3.99810955      2.51220054     -0.83726518
C       5.91439063      0.69670785     -0.36577426
C       6.41155074     -0.52571597      0.10249189
N       7.84859912     -0.81321617      0.00426943
O       8.22977588     -1.93499869      0.36146994
O       8.58347041      0.08194973     -0.43078243
C       5.55200772     -1.47194689      0.66616438
C       4.18434266     -1.16882388      0.74000413
N       3.31203225     -2.15451522      1.33760237
O       3.53080081     -2.44701471      2.51858567
O       2.44675876     -2.66346629      0.61210112
C      -0.72636215     -0.58209778     -0.23879496
N      -0.35266866     -1.92959719      0.00396595
C      -1.17066449     -3.00435913      0.29546886
C      -0.38970206     -4.27923104      0.49326910
O      -2.39159646     -2.99705181      0.40864109
C      -2.06091023     -0.13799670     -0.21169591
H      -6.21710280     -0.73384642     -0.80762664
H      -5.78949365      0.56670117     -1.93210401
H      -4.63225021     -0.72529689     -1.59800445
H      -4.53582205      0.06764373      0.84090180
H      -5.67182144      1.31662511      0.43974123
H      -3.59340608      3.34664482     -1.65461102
H      -5.21543339      2.94677055     -1.17987209
H      -3.09913314      4.00680322      0.76989053
H      -4.76325147      3.58563142      1.18723431
H      -4.44370975      4.92267131      0.06957986
H      -1.57941293      3.13445164     -0.94405248
H       0.72066067      2.39606474     -1.01616322
H       6.58050911      1.44217749     -0.79948818
H       5.92518986     -2.42287650      1.04556986
H       0.64988310     -2.11291520     -0.01674268
H       0.12624494     -4.24704628      1.45641965
H       0.33389104     -4.41372103     -0.31566093
H      -1.07433600     -5.13235623      0.48328565
H      -2.83506715     -0.86442119     -0.00308592
