37
Nc1ccc(S(=O)(=O)Nc2ncc3c(n2)CCCC3)cc1
N      -4.59672790      1.83253954      1.71626182
C      -3.91361246      1.27235459      0.63021988
C      -2.82135634      1.94067422      0.06696526
C      -2.05848479      1.34240987     -0.93939056
C      -2.35979489      0.04234220     -1.34790365
S      -1.41904630     -0.72660935     -2.64295793
O      -2.37886047     -1.39897086     -3.49805115
O      -0.50050349      0.23875492     -3.20946889
N      -0.57827631     -1.93112860     -1.87060780
C       0.58028964     -1.57149121     -1.19478279
N       1.53239674     -2.50552889     -1.24375485
C       2.61362594     -2.26075201     -0.48091554
C       2.74679059     -1.15262719      0.33404844
C       1.65970166     -0.29201991      0.35120090
N       0.56187733     -0.49896406     -0.40439533
C       1.66808027      0.96168443      1.18632419
C       2.71318181      0.92965354      2.30042440
C       4.06012823      0.46709078      1.75365393
C       3.95671740     -0.95275008      1.19512774
C      -3.41734252     -0.65718548     -0.76288029
C      -4.17253018     -0.04654606      0.24184130
H      -5.53037328      1.45674217      1.85004472
H      -4.58683133      2.84769952      1.72572082
H      -2.55533708      2.93803970      0.40697638
H      -1.22295062      1.88273663     -1.37785856
H      -0.47819508     -2.77800769     -2.41644277
H       3.39496560     -3.01411229     -0.54084444
H       1.87206933      1.80825478      0.51917870
H       0.67547436      1.12059976      1.62350048
H       2.80781834      1.92637928      2.74550066
H       2.38843936      0.24958011      3.09814043
H       4.82059713      0.49855531      2.54188524
H       4.38816571      1.15437956      0.96331594
H       4.86559028     -1.17706504      0.62446002
H       3.90501902     -1.66423351      2.02878537
H      -3.64942712     -1.67282086     -1.07336239
H      -4.97127854     -0.60965781      0.71756007
