23
N=C(N)NC(=O)c1nc(Cl)c(N)nc1N
N      -3.71104219      1.48498183     -0.95905779
C      -3.13860517      0.37585855     -0.67060679
N      -3.78882010     -0.80296739     -0.61085157
N      -1.80307176      0.44943997     -0.42312670
C      -0.92717103     -0.58346819     -0.12467795
O      -1.23402999     -1.77349177     -0.13299974
C       0.46276223     -0.12718300      0.18512058
N       0.65720094      1.22052894      0.10170222
C       1.91963977      1.61671656      0.37563861
Cl      2.14946385      3.31666146      0.27450787
C       2.95176091      0.73678930      0.73459346
N       4.26492393      1.13908306      0.97946903
N       2.72758583     -0.59247984      0.80944855
C       1.47829816     -1.03841982      0.53637569
N       1.29487913     -2.42598397      0.63555373
H      -4.71112909      1.31572511     -1.09116704
H      -4.58991578     -0.91299655     -1.21711744
H      -3.17590579     -1.61845033     -0.60381035
H      -1.42660252      1.39215552     -0.44125307
H       4.32398457      1.91023996      1.63590271
H       4.79310128      0.32252336      1.28013502
H       0.93587651     -2.78200223     -0.25065713
H       0.54681631     -2.62326056      1.29997357
