22
c1ccc(Cn2ccnc2)cc1
C      -3.18876012      0.52653301     -0.37112853
C      -2.70783706      1.13731597      0.78510954
C      -1.47274310      0.75933783      1.31466571
C      -0.70535520     -0.23584002      0.69106185
C       0.62846824     -0.64390505      1.26265230
N       1.73353912     -0.20893212      0.42663120
C       2.55410459     -1.01123780     -0.31810483
C       3.47239919     -0.15430835     -0.87883388
N       3.23669585      1.13758992     -0.48571533
C       2.18299532      1.07485853      0.29731925
C      -1.20114743     -0.84325291     -0.47278869
C      -2.43602366     -0.46270416     -1.00014432
H      -4.14903799      0.82406998     -0.78447606
H      -3.29499875      1.91123026      1.27321563
H      -1.11592873      1.25139543      2.21702569
H       0.78948745     -0.21542166      2.25893479
H       0.67756350     -1.73424704      1.36536348
H       2.42559068     -2.08193146     -0.38778469
H       4.29299241     -0.39883367     -1.54075783
H       1.71186824      1.91678035      0.78780643
H      -0.62485917     -1.61307478     -0.98223980
H      -2.80901336     -0.93542226     -1.90527464
