34
CCOP(=S)(Oc1ccc(C#N)cc1)c1ccccc1
C      -1.81630884      4.27943729      0.22460079
C      -0.99581823      3.32664699      1.06988208
O      -1.49700014      2.01294242      0.87975130
P      -0.54177955      0.73542551      1.22657294
S       0.09889434      0.76572315      3.07718417
O       0.61964786      0.96748212      0.11430868
C       1.63816428      0.11283538     -0.19852755
C       1.85309428     -1.12588847      0.39993794
C       2.92859926     -1.92255182     -0.01061439
C       3.79091825     -1.48264216     -1.01990072
C       4.89006239     -2.30233395     -1.43873588
N       5.77842746     -2.96595311     -1.78121011
C       3.57315677     -0.23899505     -1.61789346
C       2.49908058      0.55398297     -1.20622101
C      -1.52126465     -0.62461911      0.58690364
C      -1.89280165     -0.64757938     -0.76805227
C      -2.64612609     -1.70221851     -1.28498332
C      -3.04281190     -2.74653486     -0.45338454
C      -2.69041700     -2.73552253      0.89436731
C      -1.93627842     -1.68081803      1.41257944
H      -1.46926607      5.30904414      0.34840261
H      -2.87462094      4.22736981      0.50095568
H      -1.74998742      4.00881684     -0.83443060
H       0.05719230      3.38361746      0.77778120
H      -1.08659257      3.59483227      2.12660783
H       1.21395559     -1.50808637      1.18898515
H       3.08711932     -2.88858512      0.46671848
H       4.23414696      0.12133078     -2.40397283
H       2.33563061      1.52167247     -1.67554166
H      -1.59374939      0.16630092     -1.42628328
H      -2.92630635     -1.70771490     -2.33551935
H      -3.63180000     -3.56764092     -0.85458919
H      -3.00653935     -3.54813524      1.54439668
H      -1.67862170     -1.69164099      2.46992426
