46
CCCCCCCCCC(=O)NNC(=O)c1ccncc1
C      -5.11293280     -2.22310064     -0.80570325
C      -3.84304319     -2.07867372     -1.63009231
C      -2.92242398     -0.95758967     -1.14082159
C      -3.54074657      0.43579887     -1.28426251
C      -2.54911950      1.57008816     -1.00530910
C      -2.06691759      1.61163133      0.44743993
C      -1.15230540      2.81512120      0.69089642
C      -0.73887089      2.98687216      2.15807783
C       0.05554612      1.82168177      2.74708194
C       1.42615188      1.64785195      2.12375861
O       1.99499480      2.49719617      1.44167939
N       2.01502984      0.43558152      2.43776752
N       3.16735617      0.09208132      1.70022065
C       3.19436188     -1.18164498      1.16091964
O       2.36384611     -2.03833850      1.45648564
C       4.26301346     -1.46735979      0.16734793
C       4.08570321     -2.54965880     -0.69625242
C       5.08019727     -2.81818568     -1.61751231
N       6.21475009     -2.09466387     -1.72335390
C       6.36908659     -1.06334806     -0.86661966
C       5.43347666     -0.71104096      0.09053300
H      -5.68220298     -3.09531763     -1.14288980
H      -5.75928426     -1.34649759     -0.90793944
H      -4.87965854     -2.36027571      0.25488956
H      -4.10719724     -1.91320228     -2.68104358
H      -3.29045571     -3.02490319     -1.58793449
H      -2.65438295     -1.14648511     -0.09513850
H      -1.99244927     -1.00023907     -1.72092917
H      -4.40101593      0.53836845     -0.61302895
H      -3.91868608      0.55689332     -2.30692505
H      -3.04110805      2.52040014     -1.24724296
H      -1.68830431      1.48014382     -1.67908471
H      -2.93092353      1.66312330      1.12043343
H      -1.52498941      0.68897446      0.67673208
H      -1.67281283      3.72943803      0.37911272
H      -0.26342605      2.73345620      0.05505562
H      -1.64179020      3.13407187      2.76355882
H      -0.15215875      3.90974675      2.24633301
H      -0.50797946      0.88673320      2.66645448
H       0.21489422      2.01096491      3.81581236
H       1.43288649     -0.36041440      2.70266565
H       3.59628595      0.87639506      1.20846097
H       3.19462639     -3.16787372     -0.65436502
H       4.99042514     -3.64638214     -2.31504379
H       7.30024288     -0.51259104     -0.97101353
H       5.64231031      0.11517257      0.75919858
