20
CCCCN(C)N=O
C      -3.17462708     -0.30186111     -0.58278758
C      -1.74435180     -0.79326336     -0.73943378
C      -0.73898220      0.22583822     -0.19959215
C       0.70445223     -0.27980433     -0.36319899
N       1.70400600      0.71146455      0.07962507
C       3.03404206      0.31433837     -0.40733080
N       1.66981815      0.92494813      1.37916407
O       2.29130212      1.95131167      1.67565602
H      -3.87580378     -1.04494671     -0.97532086
H      -3.41708266     -0.12925653      0.47065834
H      -3.32996529      0.63386215     -1.12924453
H      -1.63074250     -1.74522616     -0.20789154
H      -1.54571160     -0.98750701     -1.79984123
H      -0.85868434      1.17594357     -0.73545299
H      -0.95920052      0.41899703      0.85734908
H       0.83266872     -1.23382103      0.16748382
H       0.85405140     -0.48965212     -1.43097913
H       3.03225421      0.22387976     -1.50001313
H       3.35883047     -0.64436759      0.01593490
H       3.79372640      1.06912248     -0.16912451
