17
O=c1cnc2[nH]c(=O)[nH]c(=O)c2[nH]1
O      -3.63531608      0.92314273     -0.20853901
C      -2.51142612      0.45830371     -0.13482609
C      -2.30868395     -1.04703242     -0.04832100
N      -1.14300383     -1.62347075      0.03299054
C      -0.05414339     -0.78679006      0.03812289
N       1.15677594     -1.39903598      0.12328179
C       2.35153858     -0.74078779      0.14229340
O       3.42383446     -1.32943497      0.22009787
N       2.27883056      0.62252747      0.06886136
C       1.12104903      1.34423115     -0.01958152
O       1.09899521      2.56969051     -0.08367077
C      -0.13408517      0.55176209     -0.03435438
N      -1.34785943      1.18210040     -0.12057186
H      -3.23621551     -1.64043269     -0.05883786
H       1.17467837     -2.40929583      0.17610392
H       3.15058587      1.12967401      0.08134982
H      -1.38555454      2.19484841     -0.17439910
