19
O=[N+]([O-])c1cc([N+](=O)[O-])c([O-])c([N+](=O)[O-])c1[O-].[Pb+2]
O       3.33824726     -1.34717354     -0.18439672
N       2.79797047     -0.29740321      0.26460245
O       3.62794674      0.61140501      0.84641932
C       1.39621965     -0.17854270      0.12707898
C       0.54809704     -1.27206154      0.04656470
C      -0.81314225     -1.14849499     -0.09614239
N      -1.68633968     -2.25583978     -0.15947680
O      -2.71179530     -2.20359979     -0.83613307
O      -1.39091732     -3.38679618      0.53248902
C      -1.35335195      0.13385402     -0.16156646
O      -2.71986872      0.26247778     -0.30510610
C      -0.54021294      1.25634779     -0.08370519
N      -1.14137330      2.54866302     -0.14325675
O      -1.56587189      3.03978465     -1.18259435
O      -1.23239640      3.25397613      1.03410911
C       0.83011628      1.08149738      0.06099463
O       1.66714607      2.17957593      0.14418161
Pb      0.00000000      0.00000000      0.00000000
H       0.94952626     -2.27766996      0.09593803
