29
O=C([O-])c1ccc[n+](Cc2ccccc2)c1.[Cl-].[Na+]
O       5.12582977      1.24509134      0.26007602
C       4.00663244      1.17933664      0.83895992
O       3.62910155      1.79198051      1.88126164
C       2.98414017      0.26971887      0.23562163
C       3.21988373     -0.47421750     -0.92132690
C       2.22270189     -1.29684975     -1.42559538
C       1.00422396     -1.36240639     -0.76351428
N       0.78306011     -0.63542637      0.35629146
C      -0.51507757     -0.72525818      1.05686193
C      -1.63177992     -0.14367208      0.22673810
C      -1.58757396      1.19381567     -0.19815414
C      -2.62279837      1.72550317     -0.96801952
C      -3.71397773      0.93257462     -1.31503164
C      -3.77522604     -0.39255657     -0.89007819
C      -2.74188966     -0.92957560     -0.12060465
C       1.74806223      0.16613882      0.85733636
Cl      0.00000000      0.00000000      0.00000000
Na      0.00000000      0.00000000      0.00000000
H       4.18794580     -0.39923779     -1.41867718
H       2.39906209     -1.87637117     -2.32726662
H       0.19428128     -1.98896460     -1.12301031
H      -0.67510824     -1.78955408      1.26850066
H      -0.45349763     -0.20418090      2.01854338
H      -0.75102703      1.84148631      0.06246487
H      -2.58033788      2.76257964     -1.29529593
H      -4.52083009      1.35126947     -1.91249535
H      -4.63428726     -1.00481410     -1.15626023
H      -2.82234338     -1.96544458      0.20430842
H       1.52082974      0.72903459      1.76040768
