42
CCCCC(CC)C(=O)OOC(C)(C)CC
C       4.10510895     -0.36556758      3.20997895
C       3.99898675     -0.84041332      1.76954026
C       2.78495013     -0.23135070      1.06714954
C       2.68219731     -0.71550110     -0.38372499
C       1.51387004     -0.06700403     -1.14623535
C       1.59006766     -0.41485407     -2.64310668
C       0.55411461      0.32878538     -3.47614009
C       0.19422678     -0.54764476     -0.56205059
O      -0.26529780     -1.67118185     -0.72415783
O      -0.37550505      0.46496269      0.16771310
O      -1.59000825     -0.07139552      0.78241343
C      -2.69928165      0.74889047      0.37614796
C      -2.51631505      2.16721349      0.93704297
C      -2.83141274      0.79300390     -1.15196944
C      -3.96185815      0.12780101      1.01969799
C      -4.24876938     -1.30834825      0.59306565
H       3.21739205     -0.65078631      3.78352575
H       4.97963911     -0.81257186      3.69297010
H       4.21005884      0.72303879      3.25741923
H       3.92708739     -1.93418232      1.75571546
H       4.91548052     -0.56832108      1.23320114
H       2.86196214      0.86254193      1.08453539
H       1.87721241     -0.50167067      1.61890900
H       2.57758153     -1.80807177     -0.39407630
H       3.62233903     -0.48076725     -0.89875973
H       1.57810210      1.02422519     -1.04542214
H       2.58510241     -0.15618485     -3.02546835
H       1.46197286     -1.49361437     -2.79482375
H       0.69654489      0.10621397     -4.53847945
H      -0.46353282      0.03068606     -3.20775323
H       0.64480464      1.41127457     -3.34176056
H      -3.38847437      2.79609109      0.72929579
H      -1.63711895      2.65837651      0.50562722
H      -2.35555797      2.13947454      2.02076147
H      -2.78473832     -0.21070613     -1.58692395
H      -2.01206007      1.36255192     -1.60458904
H      -3.76980261      1.26723216     -1.45808288
H      -4.84114897      0.74471451      0.79676047
H      -3.84110998      0.12390578      2.11101361
H      -5.11067816     -1.69552850      1.14644392
H      -3.39807445     -1.96557364      0.79706589
H      -4.48805743     -1.36974401     -0.47246993
