15
CCC(C)O
C       1.97224282      0.09113172     -0.42085158
C       0.53403315     -0.35226058     -0.65504909
C      -0.40022299      0.08998277      0.47330966
C      -1.81561508     -0.42592178      0.25114633
O      -0.43176161      1.51363689      0.52278352
H       2.35846769     -0.31468630      0.51957209
H       2.05261685      1.18200617     -0.38432137
H       2.61351436     -0.26596045     -1.23295489
H       0.50998763     -1.44377949     -0.75280945
H       0.19599897      0.07372904     -1.60761149
H      -0.02237109     -0.27399794      1.43544909
H      -1.83885024     -1.51906941      0.20932953
H      -2.23630384     -0.02856157     -0.67914938
H      -2.47539524     -0.09519116      1.06054831
H      -1.01634140      1.76894209      1.25672847
