36
O=C1OC(c2ccccc2)(c2ccccc2)c2ccccc21
O       0.73667267      1.31301936      3.68051708
C       0.43081769      1.06651677      2.53136040
O       0.59385287     -0.11768057      1.88181522
C       0.17240026     -0.06591135      0.48168938
C      -0.90588993     -1.13537804      0.22990921
C      -1.20066833     -1.56541128     -1.07947613
C      -2.19559152     -2.51581712     -1.31931658
C      -2.92040075     -3.04976208     -0.25790952
C      -2.65237502     -2.63409139      1.04331490
C      -1.65714063     -1.68408074      1.28608864
C       1.46924694     -0.31436001     -0.30915103
C       2.01691991      0.61240729     -1.21398525
C       3.19795122      0.33016486     -1.90814365
C       3.85784270     -0.87925032     -1.70990768
C       3.34222498     -1.80885629     -0.81330137
C       2.16369365     -1.52857691     -0.11917569
C      -0.40783886      1.31672273      0.39669815
C      -1.07282461      1.96445054     -0.63889988
C      -1.51374848      3.27731240     -0.43826193
C      -1.29851183      3.92681859      0.78757982
C      -0.64673647      3.26643241      1.82831874
C      -0.22081153      1.96837300      1.59884930
H      -0.64928344     -1.16734959     -1.92955940
H      -2.40283706     -2.84032520     -2.33590717
H      -3.69391598     -3.79020692     -0.44395946
H      -3.21809810     -3.04930287      1.87379684
H      -1.47514021     -1.38060186      2.31553731
H       1.54831213      1.57575561     -1.39511174
H       3.60643563      1.06139491     -2.60154861
H       4.77726145     -1.09376747     -2.24813095
H       3.85750380     -2.75154155     -0.64789810
H       1.78303287     -2.26880993      0.58438157
H      -1.25187880      1.47023752     -1.58965437
H      -2.03394411      3.80036285     -1.23850423
H      -1.65125625      4.94617713      0.92856078
H      -0.48527687      3.74493552      2.78938540
