46
CC(C)(C)c1cc(C(=O)O)c(O)c(C(C)(C)C)c1.Cl.O.[Zn]
C       3.68127812      0.15817956     -0.50112095
C       2.56394100     -0.57684639      0.19882513
C       2.40636128     -1.93228228     -0.49726431
C       2.84735653     -0.85081729      1.63691184
C       1.28092645      0.12509430      0.07782997
C       1.27874752      1.49294570      0.01681099
C       0.04567145      2.14741330     -0.09846037
C       0.09059384      3.59576333     -0.15956773
O       1.23003504      4.17177286     -0.10559180
O      -0.99476245      4.44144034     -0.27277944
C      -1.10801322      1.40895160     -0.14621589
O      -2.33308856      1.97743578     -0.25701187
C      -1.10369556      0.01957611     -0.08413139
C      -2.31887270     -0.78746277     -0.13369627
C      -3.29355497     -0.50972585      0.97113780
C      -3.02867987     -0.59213200     -1.47962972
C      -1.96536330     -2.25332246     -0.07177138
C       0.11484369     -0.60379837      0.02876421
Cl      0.68567501      0.00000000      0.00000000
O      -0.00388479      0.36898436     -0.00000000
Zn      0.00000000      0.00000000      0.00000000
H       4.58925461     -0.49148105     -0.47633173
H       3.36573312      0.44001345     -1.51172498
H       3.94631077      1.05337462      0.11570984
H       1.76243776     -1.79546581     -1.40524255
H       1.98968607     -2.69062930      0.19745083
H       3.42225408     -2.28555180     -0.76204086
H       2.18529726     -0.25567472      2.32518410
H       2.63072078     -1.92214336      1.92052721
H       3.88140243     -0.56612980      1.91800196
H       2.18353829      2.07694927      0.05401201
H      -1.12981098      5.11815610      0.46850813
H      -2.51017127      2.93392635     -0.31181410
H      -4.02279871     -1.36428966      0.97833093
H      -2.76337743     -0.55973501      1.93049808
H      -3.89725875      0.39692102      0.82508731
H      -2.27475016     -0.85040199     -2.25094052
H      -3.85491284     -1.36098229     -1.48234401
H      -3.41830462      0.41777982     -1.61188859
H      -1.46071306     -2.54565249      0.87159413
H      -1.32194773     -2.58728515     -0.91101023
H      -2.89933932     -2.89282356     -0.08843634
H       0.20302539     -1.70106007      0.08383055
H      -0.68567501      0.00000000      0.00000000
H      -0.82364773     -0.18580997     -0.00000000
H       0.82753252     -0.18317439      0.00000000
