25
NS(=O)(=O)c1cc2c(s1)C(O)CCS2(=O)=O
N       4.24313875     -1.15543562     -0.20904739
S       3.55051973      0.06140395     -1.13817932
O       4.16432819      1.29927228     -0.72144105
O       3.59143928     -0.41159756     -2.50159222
C       1.83334008      0.17238963     -0.71591104
C       0.68276812      0.07243641     -1.47490962
C      -0.48592412      0.22906517     -0.68039199
C      -0.20899616      0.45045779      0.65101827
S       1.47761603      0.45293363      0.93769861
C      -1.18914790      0.64571938      1.76361569
O      -1.36167688     -0.62769832      2.37156653
C      -2.55334453      1.11887835      1.24832358
C      -3.11826122      0.19142708      0.17209616
S      -2.10210234      0.19085096     -1.29392362
O      -2.23003894      1.46076972     -1.97606810
O      -2.19571800     -1.08311471     -1.97194102
H       4.55400485     -1.90626006     -0.82821662
H       5.01403061     -0.75952601      0.33141098
H       0.68824198     -0.10313233     -2.54556182
H      -0.81786826      1.34878195      2.51740271
H      -0.49690884     -0.89093775      2.73573411
H      -2.46807093      2.13851391      0.85286260
H      -3.26341751      1.14504158      2.08357684
H      -3.19207813     -0.84122276      0.52708484
H      -4.11587385      0.52036466     -0.13520712
