13
Sc1ccccc1
S       2.66879166     -1.01263979     -0.33545845
C       0.99854475     -0.42537914     -0.15861743
C      -0.05814123     -1.33910506     -0.11890043
C      -1.37345694     -0.88862986      0.01331801
C      -1.63739469      0.47727817      0.10185309
C      -0.58763343      1.39348781      0.05578697
C       0.72820626      0.94365342     -0.07617070
H       3.23982213     -0.09616887      0.45920490
H       0.13356986     -2.40714901     -0.18992558
H      -2.19100301     -1.60426015      0.04518904
H      -2.66147739      0.82767048      0.20325857
H      -0.79342395      2.45896612      0.11933800
H       1.53359599      1.67227588     -0.11887599
