24
CCC(C)C(C)(C)O
C       2.81176904      0.02238798     -0.54885325
C       1.51116406     -0.52659572      0.02614118
C       0.26301217      0.34399928     -0.27182615
C       0.46774658      1.76673166      0.27807005
C      -1.05292617     -0.30796752      0.27203977
C      -1.27444211     -1.71961641     -0.29235935
C      -2.29180562      0.54227793     -0.04946038
O      -0.95790497     -0.41775723      1.69578761
H       2.70677475      0.25032840     -1.61409033
H       3.61030865     -0.71883231     -0.43865247
H       3.13546814      0.92655906     -0.02564069
H       1.63100294     -0.66091101      1.10768527
H       1.37408837     -1.52346144     -0.40550175
H       0.16860460      0.42670075     -1.36343292
H       0.59915993      1.76023584      1.36495941
H       1.34615129      2.24430118     -0.16629595
H      -0.37693303      2.41838159      0.03812131
H      -2.24760144     -2.11670555      0.02068528
H      -0.53694060     -2.43098266      0.09284488
H      -1.24100072     -1.72450002     -1.38647297
H      -2.29372769      1.48389639      0.50878946
H      -2.36293149      0.75959566     -1.11995739
H      -3.20967974      0.02518651      0.25522491
H      -1.77935695     -0.82325235      2.02219446
