35
Cc1cccc(C)c1N(Cn1cccn1)C(=O)CCl
C      -1.55449163     -0.88871491     -2.60279555
C      -1.81801318     -0.76758069     -1.12544236
C      -2.98153562     -1.35951856     -0.61184834
C      -3.26516761     -1.30794800      0.74980884
C      -2.38391770     -0.67319773      1.62078646
C      -1.20922654     -0.06986681      1.14469984
C      -0.27267718      0.53025162      2.15911317
C      -0.92505720     -0.12853410     -0.23707765
N       0.26039700      0.45484211     -0.74613093
C       1.38444406     -0.44556245     -1.01333653
N       2.34585993     -0.58676025      0.08125685
C       3.36356611      0.27141967      0.39822214
C       4.01223866     -0.28172698      1.47622914
C       3.32033332     -1.47831969      1.73251970
N       2.30637200     -1.67294247      0.88603195
C       0.40988222      1.81307050     -0.99178207
O       1.47907746      2.27504276     -1.40587439
C      -0.78123274      2.73525288     -0.78010188
Cl     -1.61547181      2.96254220     -2.33089954
H      -2.49407924     -0.95441791     -3.16232804
H      -1.01767051     -0.02089441     -2.99522057
H      -0.96714402     -1.79004339     -2.80338400
H      -3.67635048     -1.87114699     -1.27524312
H      -4.16811428     -1.77516887      1.13513407
H      -2.61175821     -0.66372556      2.68517908
H      -0.83915224      0.99838229      2.97193806
H       0.36461377     -0.24957530      2.58566077
H       0.36070208      1.31267359      1.73441624
H       1.02211800     -1.45113914     -1.25805937
H       1.95171429     -0.08554702     -1.87996106
H       3.53222931      1.18300659     -0.15954923
H       4.86770228      0.11998733      1.99977352
H       3.51309274     -2.21743144      2.49951005
H      -1.49796870      2.37509412     -0.04333788
H      -0.41531435      3.70819699     -0.43790735
