18
COC(C)(C)C
C       2.12915740     -0.19538369     -0.05023493
O       0.90852343     -0.86633883     -0.32256561
C      -0.30402263     -0.14432260     -0.05906349
C      -1.43541007     -1.10874810     -0.44321536
C      -0.41113847      1.11374927     -0.92910381
C      -0.43870418      0.20747871      1.42730313
H       2.94803638     -0.87556136     -0.30225120
H       2.23851573      0.69977469     -0.66713455
H       2.21889929      0.05492328      1.00954164
H      -1.37441748     -2.03355553      0.14237597
H      -2.42296673     -0.66327835     -0.28343941
H      -1.35525117     -1.40337826     -1.49615101
H      -0.21599294      0.87804623     -1.98123821
H       0.32146422      1.87171972     -0.63231828
H      -1.40399501      1.57003635     -0.85212376
H      -0.26319733     -0.67394888      2.05412599
H      -1.43333207      0.60554730      1.65565723
H       0.29383164      0.96324004      1.72983567
