49
CC(C)CC(NC(=O)OCC1c2ccccc2-c2ccccc21)C(=O)O
C       5.31959606      1.09547597     -0.54858585
C       4.96965523      0.46061793      0.79785637
C       6.23296657      0.33471772      1.65370982
C       4.30723338     -0.92317940      0.64128613
C       2.98419118     -0.91491438     -0.13292528
N       1.97986435     -0.10055589      0.53980403
C       0.96639861      0.47424045     -0.16320035
O       0.93263033      0.61166763     -1.37546911
O      -0.01407330      0.83199682      0.69690529
C      -1.18289606      1.42028067      0.09360670
C      -2.08105404      0.36856155     -0.57396067
C      -3.21990162      1.01230183     -1.35771631
C      -3.13680539      1.87026276     -2.44426990
C      -4.32638076      2.33625384     -3.00676674
C      -5.56995743      1.93958002     -2.48773013
C      -5.64661283      1.06480721     -1.39919361
C      -4.46710237      0.60151717     -0.83979453
C      -4.24081668     -0.31032583      0.26105218
C      -5.13967127     -0.98453336      1.07141591
C      -4.63707692     -1.83518209      2.06100663
C      -3.25306469     -2.00764138      2.22686470
C      -2.34589226     -1.32858421      1.41142510
C      -2.84989170     -0.47618345      0.44044426
C       2.44011483     -2.34297125     -0.21870273
O       1.58296767     -2.83716112      0.49953046
O       3.03586543     -3.07919975     -1.17811732
H       4.41983422      1.32173354     -1.12851438
H       5.85653619      2.03941851     -0.40487592
H       5.95491433      0.43346273     -1.14655877
H       4.27973593      1.13153747      1.32436970
H       6.69644165      1.31460299      1.81024869
H       5.99608863     -0.08197752      2.63840657
H       6.97277006     -0.31790367      1.17765550
H       5.01037225     -1.60598394      0.14559363
H       4.13348137     -1.34538235      1.64098648
H       3.11553901     -0.54951957     -1.15694462
H       1.71422186     -0.35509553      1.48268151
H      -0.86435327      2.19347119     -0.61720247
H      -1.72088926      1.94459760      0.89305892
H      -1.52532991     -0.30890919     -1.23195394
H      -2.17700443      2.16981087     -2.85393851
H      -4.29141652      3.01075731     -3.85927393
H      -6.48430930      2.31304595     -2.94293432
H      -6.61220345      0.75796869     -1.01212468
H      -6.21034476     -0.86641513      0.94515445
H      -5.32548387     -2.37600292      2.70610682
H      -2.88428654     -2.68199297      2.99633417
H      -1.27754963     -1.47533650      1.53542506
H       2.58294918     -3.94773700     -1.13300762
