48
CCN(CCO)C(=O)c1cc2ccc(C)nn2c1-c1cccc(C(F)(F)F)c1
C       3.35263319      0.65463941     -1.89407472
C       2.24083367     -0.29939448     -1.48022468
N       2.34705587     -0.68689332     -0.06933119
C       3.38302949     -1.67857563      0.26265820
C       2.86791007     -2.83189256      1.13843252
O       2.95335303     -2.53475401      2.52886627
C       1.83087833      0.09335924      0.97189988
O       2.22015158     -0.03231897      2.13200285
C       0.79342092      1.06714024      0.65888254
C       0.88124440      2.47221491      0.85996179
C      -0.31391156      3.02360975      0.46322137
C      -0.80331015      4.34748857      0.42331526
C      -2.04835900      4.56837438     -0.01100482
C      -2.84556428      3.38426786     -0.43162582
C      -4.25033491      3.63763954     -0.91968698
N      -2.42821120      2.15617125     -0.40880090
N      -1.15058321      2.00335249      0.05001854
C      -0.49317121      0.78844279      0.19098573
C      -1.12128572     -0.51141605     -0.08500758
C      -1.74817467     -0.76348290     -1.31149297
C      -2.31262426     -2.01121664     -1.58057045
C      -2.25616442     -3.02339908     -0.62383378
C      -1.64283436     -2.79453494      0.61660976
C      -1.56115002     -3.89668866      1.64308146
F      -2.65078212     -4.71629767      1.62794040
F      -0.48483069     -4.70662457      1.44169473
F      -1.45932391     -3.44141139      2.92221957
C      -1.07310346     -1.53554717      0.87208206
H       4.33861069      0.19793931     -1.75871981
H       3.32633856      1.57359707     -1.29929795
H       3.24554145      0.92659847     -2.94871038
H       2.26945429     -1.20968974     -2.08965146
H       1.28220854      0.17919509     -1.68522177
H       4.21076887     -1.15303116      0.75372529
H       3.75294367     -2.10737514     -0.67590097
H       3.48861755     -3.71799594      0.97338636
H       1.83246653     -3.09162970      0.89694242
H       2.64092307     -1.61103266      2.64896813
H       1.73539027      3.01003613      1.25260055
H      -0.17108556      5.16760626      0.74866411
H      -2.48435777      5.55670727     -0.06161550
H      -4.36096470      3.22766569     -1.92829422
H      -4.95862866      3.13797837     -0.25188912
H      -4.48191289      4.70567282     -0.94652551
H      -1.80229779      0.01517595     -2.06958131
H      -2.79777468     -2.19068562     -2.53685070
H      -2.69851567     -3.99371443     -0.84552257
H      -0.59451720     -1.35527043      1.83527540
