22
Clc1ccc2c(c1)Oc1ccccc1O2
Cl      5.12950459     -1.04174299      0.66947659
C       3.57526580     -0.33632146      0.45018654
C       3.46247883      1.04409372      0.27222075
C       2.20309368      1.62068721      0.09392943
C       1.06758440      0.81143840      0.09521009
C       1.18739375     -0.56726965      0.27356783
C       2.44197922     -1.14780809      0.45193188
O       0.09731409     -1.40097134      0.28172708
C      -1.11726389     -0.78805114      0.10284675
C      -2.25360716     -1.59570548      0.10386502
C      -3.51263743     -1.01938515     -0.07436574
C      -3.63201342      0.36059800     -0.25284441
C      -2.49261816      1.16736562     -0.25349200
C      -1.23641284      0.58959828     -0.07532554
O      -0.14694643      1.42380110     -0.08359829
H       4.34865008      1.67353836      0.27147470
H       2.10807851      2.69410138     -0.04507347
H       2.52864072     -2.22129447      0.59023699
H      -2.15960755     -2.66898591      0.24276682
H      -4.40112255     -1.64610323     -0.07415737
H      -4.61341453      0.80758193     -0.39150137
H      -2.58433970      2.24083490     -0.39222530
