38
CC(C)OC(=O)C(O)(c1ccc(Cl)cc1)c1cccc(Cl)c1
C       3.12316446     -2.09002941     -0.39766561
C       2.56904027     -1.40301131      0.84413484
C       3.56433835     -0.38550875      1.38916497
O       1.36149515     -0.72725008      0.44816272
C       0.45214466     -0.47465205      1.43234387
O       0.57258024     -0.83402019      2.60237226
C      -0.79791390      0.29156270      0.91143539
O      -1.49694335      0.77086915      2.08712124
C      -1.82857084     -0.60062848      0.19710378
C      -1.55784028     -1.92226114     -0.20063156
C      -2.52744082     -2.68678917     -0.86014063
C      -3.77986468     -2.14333689     -1.13192272
Cl     -4.96545456     -3.08897929     -1.94322924
C      -4.07501156     -0.83985936     -0.74996663
C      -3.10762819     -0.07655772     -0.09166785
C      -0.37400535      1.51474682      0.07961640
C      -0.20122933      2.77628358      0.68047536
C       0.21459229      3.88203546     -0.06619564
C       0.47547983      3.74709760     -1.42769542
C       0.32158993      2.50563882     -2.03691677
Cl      0.65563568      2.33132745     -3.71613452
C      -0.09495725      1.39795310     -1.29667233
H       4.04926070     -2.62863268     -0.17521015
H       3.32030854     -1.36415586     -1.19448584
H       2.39214738     -2.80208178     -0.79602747
H       2.35093876     -2.16924570      1.59772808
H       4.51394230     -0.86157792      1.65188852
H       3.75764118      0.40469125      0.65513887
H       3.16797143      0.10793708      2.28254290
H      -1.29893074      0.12469593      2.79348817
H      -0.59434667     -2.39028861     -0.01345273
H      -2.29692848     -3.70646202     -1.15892799
H      -5.05104355     -0.40973234     -0.95773475
H      -3.35480370      0.94323312      0.20467213
H      -0.39668917      2.91102732      1.74388981
H       0.33410662      4.84853222      0.41761035
H       0.79895370      4.60913355     -2.00452318
H      -0.19572905      0.43829560     -1.79968864
