16
CN(/C(N)=N/[N+](=O)[O-])[N+](=O)[O-]
C      -1.03291975      1.43419228     -1.01734419
N      -0.76945883      0.05086830     -0.63177864
C       0.40648017     -0.25435335      0.04922131
N       0.84451163     -1.54747596     -0.14935783
N       1.05160439      0.69139041      0.67585450
N       2.23393393      0.39699777      1.24255920
O       3.14969263      1.21765115      1.10682123
O       2.36609085     -0.65328578      1.89260935
N      -1.89923515     -0.68348521     -0.31335293
O      -2.99112418     -0.19088079     -0.61458546
O      -1.73801106     -1.78785786      0.21965132
H      -0.11253389      1.91963270     -1.36299036
H      -1.42765080      2.01420938     -0.17518979
H      -1.73507877      1.49366460     -1.85730611
H       0.09423900     -2.24098889     -0.16570911
H       1.55945984     -1.86027875      0.51079304
