54
CCCC[N+](CCCC)(CCCC)CCCC.[Br-]
C       3.85968466      1.24511514      3.17205396
C       3.29579235      0.14425994      2.28765244
C       1.98651076      0.57541738      1.61989160
C       1.44097936     -0.55231273      0.73795567
N       0.12512838     -0.19596329     -0.01743547
C       0.27355682      1.12008868     -0.84312817
C       1.46898869      1.12705313     -1.80232947
C       1.55195418      2.42044823     -2.62162490
C       1.86394271      3.65034167     -1.78262502
C      -0.20943225     -1.35991670     -1.00185719
C      -0.57123707     -2.68077586     -0.31340885
C      -0.84388526     -3.80660704     -1.31807134
C      -2.09125833     -3.57992576     -2.15864584
C      -1.00578283      0.00999808      1.03499483
C      -2.39794821      0.21613961      0.42982028
C      -3.44461988      0.36439345      1.53811485
C      -4.83752013      0.57367146      0.96537483
Br      0.00000000      0.00000000      0.00000000
H       4.07055559      2.14729557      2.58899200
H       4.79364876      0.91579063      3.63803218
H       3.15630976      1.50715203      3.96885848
H       4.03595764     -0.11531041      1.52173702
H       3.12678382     -0.75307259      2.89429390
H       1.26669817      0.83641697      2.40217907
H       2.17668420      1.48067037      1.03583304
H       2.17608175     -0.85289611     -0.01637789
H       1.22366291     -1.42376652      1.36387732
H       0.33158608      1.93990846     -0.12112125
H      -0.65007608      1.24049011     -1.41852870
H       1.38734849      0.29886425     -2.51332663
H       2.41339926      0.99521101     -1.26572097
H       2.34207181      2.30399991     -3.37319290
H       0.61527143      2.57802574     -3.16884833
H       2.77744689      3.50562284     -1.19722382
H       1.04627464      3.88676035     -1.09576026
H       2.01178895      4.51944548     -2.43172884
H       0.67571137     -1.51155823     -1.62785671
H      -1.02179374     -1.00593596     -1.64339039
H       0.25236711     -3.01156763      0.32701946
H      -1.45014865     -2.56929568      0.32875135
H      -0.96588704     -4.74423936     -0.76249804
H       0.02255533     -3.93917504     -1.97637401
H      -1.97507578     -2.72255598     -2.82774445
H      -2.28972365     -4.45923613     -2.77990123
H      -2.96692929     -3.40863004     -1.52462514
H      -0.98961941     -0.85871540      1.70193982
H      -0.73632905      0.89256548      1.62426875
H      -2.41880258      1.11756641     -0.19098095
H      -2.68363420     -0.62585535     -0.20751431
H      -3.44708964     -0.53179961      2.16952500
H      -3.18872354      1.21472810      2.18094908
H      -5.13723259     -0.27534250      0.34271578
H      -4.87787101      1.48030056      0.35325317
H      -5.56812166      0.67671292      1.77375720
