23
CCCC(=O)n1c(=O)[nH]cc(F)c1=O
C       3.08736664      1.02081315      0.45015700
C       2.82424984     -0.24995633     -0.34553908
C       1.40691829     -0.78113037     -0.14329112
C       0.34588459      0.09443312     -0.79239276
O       0.57157324      0.82357505     -1.75715290
N      -0.90680334     -0.07130705     -0.25972849
C      -1.65405944     -1.15781880     -0.67446372
O      -1.21017034     -2.13180706     -1.27889411
N      -2.98585981     -1.14035030     -0.32240905
C      -3.57203098     -0.12802072      0.38152217
C      -2.84572548      0.90225118      0.80828742
F      -3.37880467      1.90651271      1.52753750
C      -1.39046608      0.95230668      0.53192088
O      -0.69240209      1.80923027      1.07114964
H       4.12353564      1.34482910      0.31028079
H       2.43381283      1.83744330      0.12881418
H       2.92684786      0.85338624      1.52002464
H       3.53743394     -1.01733482     -0.02229383
H       3.01759262     -0.06074539     -1.40764996
H       1.19272410     -0.88737585      0.92651108
H       1.33629697     -1.77578119     -0.59773230
H      -3.53293795     -1.93643318     -0.63710289
H      -4.63497638     -0.20671975      0.58244492
