28
C=C(C)C(=O)OCCOC(=O)C(=C)C
C      -2.81474368     -0.87402172      1.49895312
C      -3.03700481      0.30170182      0.88642598
C      -4.08156889      1.26732059      1.35988540
C      -2.26434878      0.74355157     -0.31129500
O      -2.45015272      1.81654874     -0.86687445
O      -1.34849658     -0.18423340     -0.68385752
C      -0.55177288      0.15600301     -1.83426564
C       0.58511495      1.10468207     -1.45375013
O       1.46566497      0.49615684     -0.49013940
C       2.37538077     -0.37227616     -0.99679250
O       2.49587534     -0.66305040     -2.17747378
C       3.21201119     -0.93393898      0.10159602
C       4.18719563     -1.79752053     -0.22880863
C       2.93742072     -0.52549101      1.51529493
H      -2.05824170     -1.57425898      1.15747390
H      -3.39114720     -1.17211862      2.36924173
H      -4.61720561      0.89221355      2.23858489
H      -3.62412714      2.22340559      1.63529006
H      -4.82231152      1.44766067      0.57377541
H      -0.15682220     -0.78885650     -2.21963736
H      -1.18157207      0.58952711     -2.61980958
H       0.19384795      2.00901663     -0.97801085
H       1.14858693      1.42105060     -2.33922965
H       4.37099454     -2.08375871     -1.26164732
H       4.82975724     -2.24259946      0.52379384
H       3.06774195      0.55478829      1.63763181
H       3.61503792     -1.01942103      2.22017771
H       1.91488565     -0.79208156      1.80256644
