26
CC(C)OP(=S)(S)OC(C)C
C      -3.40951996     -0.55790499      0.52099062
C      -2.04371797      0.05010772      0.23632239
C      -2.15939002      1.53863074     -0.06059831
O      -1.50366666     -0.59223289     -0.91283821
P      -0.02827830     -1.27420495     -0.84264496
S       0.02097014     -2.80240673      0.36857150
S       0.49887411     -1.59520442     -2.85577530
O       0.82848000      0.00358519     -0.31679917
C       2.24236761     -0.09265712     -0.19877895
C       2.61583202      0.12264290      1.26119983
C       2.86595344      0.98034104     -1.08047219
H      -4.07636387     -0.44924264     -0.34161136
H      -3.31863229     -1.63220255      0.71288429
H      -3.88049675     -0.08832630      1.38991560
H      -1.39520674     -0.09485828      1.10698838
H      -2.58838046      2.08089470      0.78748538
H      -1.17498754      1.96384530     -0.28275816
H      -2.78348740      1.71635982     -0.94345690
H      -0.45684759     -2.50642039     -3.07304931
H       2.59354065     -1.07768557     -0.52444670
H       3.69973826      0.07846821      1.40473072
H       2.15082937     -0.63902050      1.89527773
H       2.25307239      1.09205294      1.62083229
H       2.57862944      0.83457159     -2.12677066
H       2.51256885      1.97767197     -0.79563741
H       3.95811926      0.96319521     -1.01510233
