32
CC1C(=O)CCC2C(O)CCC(O)C12
C       1.98662907     -2.22833615     -0.26520360
C       1.58771104     -0.86925480      0.31130059
C       2.60252448      0.19278293     -0.12027756
O       3.62290063     -0.06547978     -0.75781517
C       2.34895271      1.59345078      0.38002060
C       0.93831877      2.02209164      0.02160155
C      -0.10529017      1.01853315      0.54070411
C      -1.52917101      1.52979004      0.25813888
O      -1.69712503      1.72479807     -1.14187839
C      -2.57468457      0.54220184      0.76419695
C      -2.36705808     -0.83756604      0.15793849
C      -0.95456509     -1.37650502      0.39655922
O      -0.84908333     -2.60446262     -0.31594027
C       0.15110189     -0.39524242     -0.06231494
H       1.79226228     -2.27608207     -1.34190327
H       1.45196109     -3.04436579      0.22857069
H       3.05356310     -2.42773146     -0.11321034
H       1.67086797     -0.93940141      1.40439597
H       2.50611391      1.60662482      1.46381296
H       3.07400744      2.27592522     -0.07583495
H       0.85847996      2.11788023     -1.06870328
H       0.74722217      3.01502166      0.44562288
H       0.00617257      0.94745341      1.63269730
H      -1.67683365      2.50016977      0.74631954
H      -2.59261801      2.07458758     -1.29123121
H      -2.52376480      0.47531844      1.85751357
H      -3.57999612      0.89276481      0.50281441
H      -2.57325069     -0.81105258     -0.92022177
H      -3.10226962     -1.53691194      0.57544102
H      -0.82318037     -1.59719197      1.46300703
H      -1.55750768     -3.19563584     -0.00881843
H       0.10760915     -0.32417449     -1.15927986
