58
O=C(c1ccc(Oc2ccccc2)cc1)c1ccc(C(=O)c2ccc(Oc3ccccc3)cc2)cc1
O       2.02867707      2.80877253     -1.19113996
C       2.24709222      1.63197008     -0.91439775
C       3.63854842      1.11689151     -0.97199632
C       4.10391790      0.15077267     -0.07057478
C       5.42565040     -0.29599756     -0.14854974
C       6.28828447      0.24343792     -1.10735285
O       7.58958996     -0.17926417     -1.25725748
C       8.35078152     -0.28345677     -0.11538423
C       9.08376549     -1.45795831      0.05660376
C       9.89925597     -1.60917682      1.17833882
C       9.99262965     -0.58031399      2.11649580
C       9.27656778      0.60311456      1.93140601
C       8.45939135      0.75732347      0.81078938
C       5.82725068      1.20357982     -2.00813268
C       4.50721862      1.65151919     -1.93192390
C       1.10867718      0.76208772     -0.52635383
C       1.04560045     -0.58253641     -0.90969065
C      -0.05086431     -1.36251110     -0.53089063
C      -1.09849785     -0.79688981      0.20792429
C      -2.23215248     -1.66891048      0.60497487
O      -2.00954805     -2.84662647      0.87248516
C      -3.62208417     -1.15386087      0.69145948
C      -4.10487840     -0.18226843     -0.19470874
C      -5.42315581      0.26865701     -0.08422467
C      -6.26590540     -0.27280906      0.89093423
O      -7.56220272      0.15125627      1.07576551
C      -8.34877025      0.29307107     -0.04488725
C      -9.11378424      1.45601175     -0.13877063
C      -9.95555043      1.64753111     -1.23459879
C     -10.04220659      0.66988658     -2.22638621
C      -9.29458778     -0.50377845     -2.11977167
C      -8.45280734     -0.69864451     -1.02388595
C      -5.78728789     -1.23959274      1.77562082
C      -4.47055804     -1.69095423      1.66776991
C      -1.03548087      0.54843882      0.59004692
C       0.06068387      1.32820554      0.21107503
H       3.45900084     -0.25555087      0.70451573
H       5.77536798     -1.06045063      0.54123309
H       9.01608155     -2.25487351     -0.67919047
H      10.46657235     -2.52591711      1.31739454
H      10.63106543     -0.69718783      2.98879129
H       9.36149479      1.40935566      2.65570534
H       7.92056498      1.68902984      0.66227226
H       6.49768239      1.61113143     -2.76059632
H       4.15637913      2.41501131     -2.62360346
H       1.83103804     -1.03504748     -1.51011581
H      -0.09178474     -2.41208588     -0.81818594
H      -3.47613351      0.22530054     -0.98243211
H      -5.78527111      1.03784570     -0.76210108
H      -9.05104784      2.21298244      0.63815513
H     -10.54736722      2.55613171     -1.31279839
H     -10.69976940      0.81878866     -3.07913786
H      -9.37311760     -1.27008429     -2.88680709
H      -7.88897619     -1.62339839     -0.93853417
H      -6.44125366     -1.64835335      2.54145363
H      -4.10652147     -2.45901638      2.34745276
H      -1.81943481      1.00146489      1.19216654
H       0.10216967      2.37794608      0.49907599
