37
CSc1ccc(C(=O)c2cc(CC(=O)O)cc3ccoc23)cc1
C       6.54360919     -0.40384375      1.29044915
S       5.70202515     -1.03528272     -0.18599232
C       4.09372514     -0.29650819      0.03433026
C       2.96512862     -1.12305315      0.04982437
C       1.68687822     -0.57837752      0.21088012
C       1.52881935      0.80590034      0.33457624
C       0.19621993      1.42787819      0.53344581
O       0.09946696      2.41726837      1.25735327
C      -1.02594057      0.88366225     -0.08260725
C      -2.24087214      0.92592117      0.62251612
C      -3.42995256      0.42562741      0.06876943
C      -4.71127778      0.45415181      0.87252346
C      -4.92188901     -0.77896846      1.71683161
O      -4.21452468     -1.76910495      1.79411854
O      -6.05841763     -0.70199918      2.44207175
C      -3.41992657     -0.13073681     -1.22539369
C      -2.21877379     -0.15441337     -1.95950277
C      -1.83784466     -0.59855067     -3.25395389
C      -0.49739206     -0.32100765     -3.38127343
O      -0.02208302      0.26098572     -2.25148057
C      -1.06299396      0.35526084     -1.37310162
C       2.65596358      1.63492443      0.32576433
C       3.93162566      1.08608201      0.16514487
H       6.68015977      0.67885197      1.22962413
H       5.97540453     -0.65045682      2.19164926
H       7.52989469     -0.86995174      1.36430920
H       3.07174804     -2.20055451     -0.05640893
H       0.83154602     -1.24789607      0.24204258
H      -2.24583701      1.35288237      1.62591011
H      -5.56443356      0.55821917      0.19179755
H      -4.70565074      1.33033944      1.53168633
H      -6.07709660     -1.54530629      2.94256190
H      -4.32924194     -0.53377205     -1.66419460
H      -2.46635499     -1.05722625     -4.00391957
H       0.22675223     -0.46573928     -4.17133462
H       2.54209385      2.71152775      0.43646154
H       4.78944233      1.75265176      0.13452133
