26
CC1=CCC(C(C)C)=CC1
C       3.80390302     -0.30491052      0.17747268
C       2.31083046     -0.16884865      0.11782997
C       1.49690469     -0.82612354      0.96336095
C      -0.00327773     -0.72008079      0.94024556
C      -0.54807339      0.20343498     -0.13052544
C      -2.05789801      0.37367989     -0.23003717
C      -2.76336367     -0.94062693     -0.57200714
C      -2.65156826      0.99182606      1.03782688
C       0.27619109      0.85785182     -0.97334323
C       1.77523681      0.75169862     -0.95001980
H       4.26672728      0.66913039      0.36605141
H       4.12398858     -0.98606551      0.97291001
H       4.18779373     -0.69527356     -0.77056122
H       1.91456119     -1.48259737      1.72240256
H      -0.40659575     -1.72815350      0.79433385
H      -0.32800128     -0.36958487      1.92608201
H      -2.27810112      1.07023764     -1.05089662
H      -3.82695357     -0.76419747     -0.76703010
H      -2.69533367     -1.66581432      0.24584935
H      -2.33171975     -1.39726226     -1.46937624
H      -2.58081775      0.31369445      1.89488372
H      -3.71191547      1.22430404      0.88949413
H      -2.13953805      1.92469517      1.29798793
H      -0.13361828      1.51623283     -1.73521630
H       2.11101944      0.39706408     -1.93171377
H       2.18961946      1.75568931     -0.79992460
