20
CCOC(=O)C(=O)OCC
C       4.12260081     -0.43596664      0.26758863
C       2.96324107      0.42111172     -0.20184133
O       1.74515021     -0.25295603      0.13001482
C       0.62478420      0.41028249     -0.23712527
O       0.57392750      1.48872391     -0.80309005
C      -0.62478351     -0.41030231      0.17095699
O      -0.57392649     -1.48874787      0.73691447
O      -1.74514992      0.25294240     -0.19617236
C      -2.96324086     -0.42112567      0.13568548
C      -4.12260228      0.43598975     -0.33367227
H       4.06481358     -0.60430819      1.34806546
H       4.09213666     -1.42081568     -0.21017049
H       5.07916251      0.04017411      0.03486839
H       3.02399527      0.56326802     -1.28671066
H       2.99618147      1.39470994      0.30001760
H      -3.02396919     -0.56333451      1.22054957
H      -2.99620470     -1.39469837     -0.36622094
H      -4.09211456      1.42081010      0.14414186
H      -5.07916339     -0.04015216     -0.10095516
H      -4.06483837      0.60439501     -1.41413985
