22
Clc1cc(Cl)c(-c2ccccc2Cl)cc1Cl
Cl      5.24363667      0.07261761     -0.05178789
C       3.51705801      0.04049032     -0.00282341
C       2.82941992      0.28179860     -1.19369135
C       1.43146791      0.26592921     -1.21288105
Cl      0.64978504      0.56511396     -2.72705900
C       0.69636454      0.00984421     -0.04031358
C      -0.77535953     -0.00931672     -0.01163127
C      -1.45152036     -1.22712020     -0.21014930
C      -2.84704950     -1.28715421     -0.18892744
C      -3.59176834     -0.13182327      0.03271489
C      -2.94228508      1.08520387      0.23416681
C      -1.54520904      1.14788307      0.21321102
Cl     -0.80633750      2.69019277      0.48041922
C       1.40675030     -0.23397935      1.14982725
C       2.80556192     -0.21865650      1.17204862
Cl      3.58793205     -0.52979469      2.68022761
H       3.38185161      0.48321549     -2.10870997
H      -0.88914793     -2.14199076     -0.39009302
H      -3.35195151     -2.23715484     -0.34885187
H      -4.67805963     -0.17775624      0.04720398
H      -3.52991350      1.98358245      0.40645859
H       0.85877394     -0.43112480      2.07064116
