27
O=S(=O)(c1cccc(O)c1)c1cccc(O)c1
O       0.08711384      2.11041442     -2.00749118
S      -0.08142724      0.68701400     -1.77666040
O      -0.31153737     -0.21693142     -2.88917490
C       1.37406185      0.14119691     -0.91822854
C       2.08925793     -0.96674981     -1.38263455
C       3.22658721     -1.38610073     -0.69115681
C       3.64466457     -0.70021767      0.45177310
C       2.92270045      0.40637887      0.89409258
O       3.30073818      1.10290445      2.00306449
C       1.78920026      0.83880643      0.21810655
C      -1.44647950      0.46981611     -0.66188383
C      -2.16196974      1.57990457     -0.20307960
C      -3.22720716      1.39099241      0.67844970
C      -3.57385874      0.10282265      1.09313320
C      -2.85334479     -0.99122730      0.61842261
O      -3.16315234     -2.26324513      0.99773410
C      -1.79109227     -0.82251668     -0.26017158
H       1.77286600     -1.50367777     -2.27460265
H       3.78896362     -2.24727876     -1.04485520
H       4.53163837     -1.03973311      0.97832446
H       4.11962831      0.71459317      2.35334704
H       1.24811190      1.71157451      0.57353837
H      -1.90123509      2.58613717     -0.52481709
H      -3.78921388      2.24875081      1.04093349
H      -4.40523846     -0.02673286      1.77962514
H      -3.93924992     -2.23621599      1.58169436
H      -1.25052600     -1.69067924     -0.62748285
