27
CC(=O)NC(=O)COC(=O)c1ccccc1
C       4.29086940      1.10373254      0.31101390
C       2.90444964      1.28816050     -0.24065636
O       2.31137548      2.36511172     -0.17263520
N       2.26875119      0.21115099     -0.80185262
C       2.44185427     -1.11312429     -0.43255621
O       3.49310155     -1.59390933     -0.01999458
C       1.23008121     -1.98941860     -0.75862135
O      -0.01256209     -1.28062653     -0.79453664
C      -0.53084578     -0.99882506      0.42975222
O       0.01692225     -1.23573332      1.49295480
C      -1.84732583     -0.31931569      0.30515693
C      -2.44407689      0.18152708      1.47007123
C      -3.67886925      0.82958203      1.40501449
C      -4.32394800      0.97854823      0.17816966
C      -3.73817191      0.47984265     -0.98502229
C      -2.50237294     -0.16902794     -0.92497707
H       4.90687398      0.52498527     -0.38217182
H       4.76058785      2.08430486      0.43422377
H       4.24226060      0.61098622      1.28512317
H       1.32957160      0.45983435     -1.08627038
H       1.39012863     -2.41379389     -1.75536530
H       1.17753762     -2.82152900     -0.04668634
H      -1.94906494      0.07190729      2.43358463
H      -4.13623321      1.21877437      2.31165386
H      -5.28560549      1.48423841      0.12887899
H      -4.24583848      0.59645027     -1.93974597
H      -2.06945047     -0.55383313     -1.84450553
