52
C#C[C@]1(O)CC[C@H]2[C@@H]3CCC4=CC(=O)CC[C@@H]4[C@H]3C(=C)C[C@@]21CC
C      -3.37460554      0.28707253      3.27908662
C      -3.35578106      0.00428099      2.11138931
C      -3.35500609     -0.34707068      0.67245427
O      -4.53343805      0.19685908      0.10472359
C      -3.36574226     -1.89218556      0.50333451
C      -1.91422341     -2.32149758      0.21379928
C      -1.09809920     -1.04762694      0.40477143
C       0.32015093     -0.96927427     -0.19156632
C       1.19131817     -2.13066235      0.30126296
C       2.58573231     -2.04537991     -0.29940657
C       3.25455501     -0.74258661      0.04749640
C       4.51080145     -0.74543329      0.52795444
C       5.25649517      0.51558407      0.74479053
O       6.39275940      0.47594964      1.20918435
C       4.60914629      1.79837893      0.29553858
C       3.10596554      1.73040559      0.51268194
C       2.45460120      0.53050608     -0.22086830
C       0.94971818      0.40735597      0.20162970
C      -0.00229896      1.53089099     -0.25361320
C       0.29355018      2.51634085     -1.11809243
C      -1.41184481      1.42706286      0.33100400
C      -2.05523944      0.08435034     -0.08528438
C      -2.27599170      0.03793588     -1.65034747
C      -3.02045901      1.21284160     -2.28431175
H      -3.39012428      0.54373329      4.31347891
H      -5.27950262     -0.10186626      0.65227934
H      -4.01472292     -2.20051986     -0.32547970
H      -3.74408969     -2.40266516      1.39736119
H      -1.59567629     -3.11603239      0.89649068
H      -1.82525508     -2.70748933     -0.80766905
H      -0.96246906     -0.94252018      1.49377090
H       0.27227573     -1.04439953     -1.28439318
H       1.25199988     -2.12461284      1.39717101
H       0.74433204     -3.08831526      0.01044434
H       3.17515783     -2.90214738      0.04910462
H       2.52444450     -2.13034883     -1.39173040
H       5.06943430     -1.65476492      0.72056336
H       5.02435454      2.62407899      0.88335679
H       4.85196199      1.96461080     -0.75928006
H       2.66815927      2.67936895      0.19095627
H       2.91034150      1.64954151      1.59112218
H       2.50661779      0.70072406     -1.30480580
H       0.94812558      0.44935464      1.30296529
H      -0.44538199      3.26530218     -1.39073684
H       1.25881595      2.61447010     -1.60018040
H      -2.04426799      2.27143652      0.03553971
H      -1.31123611      1.50400997      1.42044064
H      -1.31434081     -0.02662721     -2.16862213
H      -2.81275427     -0.87560265     -1.93047975
H      -4.01822228      1.36026670     -1.86948543
H      -2.46767760      2.14945411     -2.18622485
H      -3.14236419      1.02746178     -3.35741123
