15
NC(=O)c1ccccn1
N       2.66833836      0.22402941     -0.69969714
C       1.73535712     -0.75424383     -0.48471253
O       2.00655651     -1.94294644     -0.59575827
C       0.37191898     -0.26259092     -0.10720988
C      -0.64701339     -1.17570376      0.13269776
C      -1.90014843     -0.68157178      0.48105328
C      -2.08839493      0.69435820      0.57628969
C      -1.01174653      1.53037633      0.31854580
N       0.21866045      1.09051350     -0.02199678
H       2.39973315      1.19640695     -0.59646552
H       3.61032818     -0.02838761     -0.95763052
H      -0.46794861     -2.24287422      0.05006958
H      -2.72262487     -1.36435089      0.67649439
H      -3.05489983      1.10694320      0.84600216
H      -1.11811617      2.61004188      0.38231798
