60
CCC(Cc1ccc(C)cc1)(C(=O)c1ccc(N2CCOCC2)cc1)N(C)C
C      -1.43741973     -3.79067295     -0.36220670
C      -1.39969614     -2.55648532     -1.26432739
C      -1.69360250     -1.16690623     -0.57079812
C      -3.18133722     -1.24150060     -0.03425140
C      -3.89381801     -0.00319767      0.47362262
C      -4.96166864      0.54389569     -0.25469039
C      -5.63910495      1.67684046      0.20478310
C      -5.26588403      2.28717195      1.40529049
C      -6.01320480      3.48133170      1.91850408
C      -4.22779138      1.72490450      2.15378798
C      -3.55112561      0.59124109      1.69376941
C      -0.68705222     -1.08647917      0.63180182
O      -1.04132612     -1.39962457      1.77505699
C       0.76857790     -0.72359968      0.47073815
C       1.43879313     -0.64012061     -0.74950650
C       2.80193455     -0.30133155     -0.80353436
C       3.54858609     -0.05028406      0.35428470
N       4.90630568      0.30081995      0.34387004
C       5.52005868      0.68711915     -0.94531991
C       6.93271599      1.24306901     -0.70692576
O       7.76155499      0.28823901     -0.02494365
C       7.18671083     -0.03370846      1.25157270
C       5.77568891     -0.62898123      1.10863120
C       2.86079929     -0.12707950      1.57363394
C       1.50142066     -0.46149149      1.63530389
N      -1.42455016     -0.06662729     -1.55941130
C      -1.49578843      1.29929069     -1.03210347
C      -2.17697769     -0.14585749     -2.81089191
H      -2.41622822     -3.92694913      0.10458603
H      -0.67571815     -3.74776827      0.42101458
H      -1.23615032     -4.68637341     -0.96004472
H      -0.42047382     -2.54310239     -1.75490731
H      -2.13342993     -2.73457577     -2.06035597
H      -3.80536518     -1.66957446     -0.83187921
H      -3.24628988     -1.97481746      0.78079560
H      -5.27806908      0.09086705     -1.19123651
H      -6.46326271      2.07676330     -0.38124281
H      -5.35658248      4.12802768      2.50999027
H      -6.40221531      4.08406914      1.09110476
H      -6.85030970      3.15840921      2.54499072
H      -3.93949091      2.15993161      3.10817203
H      -2.76220064      0.17336171      2.31366198
H       0.93647155     -0.82511762     -1.69235405
H       3.26165394     -0.25683522     -1.78642087
H       5.59033514     -0.19151476     -1.59898451
H       4.92222922      1.45920352     -1.44338628
H       7.40911980      1.46938414     -1.66601184
H       6.89955901      2.17019600     -0.12213255
H       7.84685845     -0.75882483      1.73792367
H       7.16955731      0.87055423      1.87185653
H       5.38757974     -0.82769861      2.11307287
H       5.83644428     -1.58322518      0.56947622
H       3.37465543      0.10331779      2.50381617
H       1.02000130     -0.50458299      2.61073938
H      -2.51092442      1.70255488     -1.01701959
H      -1.06781859      1.39775170     -0.03075063
H      -0.90432178      1.96128742     -1.67612765
H      -1.91049491      0.68743535     -3.47255622
H      -1.92904050     -1.04850385     -3.37626481
H      -3.25887773     -0.11362609     -2.65642437
