29
CC(=O)Nc1ccc(S(=O)(=O)CCO)cc1
C       5.59780217      0.16967043     -0.15474137
C       4.23813381     -0.08395705      0.44779614
O       4.11405542     -0.28949973      1.64968084
N       3.22593989     -0.01562868     -0.49289879
C       1.84572496     -0.21336440     -0.28316121
C       1.00027706     -0.03965749     -1.38889541
C      -0.38138742     -0.21471684     -1.26880655
C      -0.92198463     -0.56209099     -0.03105698
S      -2.67386918     -0.79720506      0.13623487
O      -3.23071863     -0.93866907     -1.19797109
O      -2.88247154     -1.82568582      1.13689602
C      -3.23695191      0.75289556      0.79869429
C      -4.75166497      0.80091468      0.78842438
O      -5.23632746      1.13049774     -0.51068668
C      -0.09425202     -0.75953457      1.07422549
C       1.28702737     -0.57836647      0.94509244
H       6.36282863     -0.31121167      0.46168551
H       5.66471776     -0.24825796     -1.16335773
H       5.78240776      1.24646417     -0.19018285
H       3.50181285      0.21973496     -1.43807162
H       1.40455245      0.23180973     -2.36132117
H      -1.01727446     -0.08342907     -2.14185176
H      -2.85058418      0.82447618      1.81953289
H      -2.81526551      1.55051517      0.17968727
H      -5.21239905     -0.13775249      1.11201187
H      -5.09476555      1.59424633      1.45966940
H      -5.02444166      0.38358730     -1.10807125
H      -0.50344356     -1.06240425      2.03600550
H       1.90252158     -0.74338062      1.82481077
