15
C/C(=C/C(=O)O)C(=O)O
C      -1.79993858     -1.13288775      0.14321778
C      -0.58504872     -0.26290865      0.08726142
C       0.32497377     -0.33038376     -0.89901372
C       1.47292938      0.57836698     -1.03434039
O       1.62556982      1.67879499     -0.54416043
O       2.38549650      0.02964673     -1.85301691
C      -0.45783670      0.68944635      1.20310577
O      -1.31247708      1.47441548      1.56759308
O       0.69299017      0.50944707      1.87051755
H      -1.81641462     -1.70785866      1.07508323
H      -2.71049080     -0.52672497      0.09338871
H      -1.83022227     -1.84648244     -0.68706342
H       0.22678107     -1.06627747     -1.68941528
H       3.10169699      0.69817364     -1.88233559
H       0.68199109      1.21523246      2.54917821
