15
CC(=O)C1(C)CO1
C       2.01307690      0.45494297      0.16917910
C       0.74260058      0.51819510     -0.62850535
O       0.67331433      1.01373819     -1.74765559
C      -0.47154389     -0.05950804      0.01037354
C      -0.87048077     -1.46464107     -0.31897669
C      -1.54216926      0.90221085      0.48472503
O      -0.63752213      0.27390015      1.40145920
H       2.86730119      0.61980311     -0.49336395
H       2.11925483     -0.53101063      0.62919074
H       2.00115615      1.22880025      0.94047975
H      -0.04812770     -2.15447117     -0.10366704
H      -1.11855005     -1.54767921     -1.38189135
H      -1.74229326     -1.79043358      0.25842803
H      -2.57468195      0.57577110      0.49025256
H      -1.41133497      1.96038199      0.28997201
