52
C[C@]1(O)CC[C@H]2[C@@H]3CCC4=CC(=O)CC[C@]4(C)[C@H]3CC[C@@]21C
C      -3.72219120      1.51817962     -1.40084520
C      -3.60216438      0.57492133     -0.19720480
O      -4.71448428     -0.31481309     -0.26186052
C      -3.64191646      1.37448762      1.13292851
C      -2.20054637      1.41934254      1.67332101
C      -1.34749642      0.85279641      0.54285276
C       0.05334814      0.32339411      0.87812988
C       0.91942447      1.40940809      1.53045659
C       2.31716663      0.88839986      1.83834607
C       2.99318401      0.31822170      0.61375726
C       4.24116471      0.71145639      0.30178607
C       4.99763980      0.09795493     -0.81339153
O       6.12135254      0.51474454     -1.08307287
C       4.38409801     -1.08147685     -1.51919510
C       2.87087581     -0.93352168     -1.58442329
C       2.19894317     -0.71632682     -0.19569224
C       2.21399753     -2.05157068      0.58199294
C       0.73212914     -0.18624481     -0.43173145
C      -0.17723443     -1.17777356     -1.20753084
C      -1.60969905     -0.65413627     -1.41923714
C      -2.26031315     -0.21495153     -0.09710967
C      -2.46631485     -1.47136960      0.79943033
H      -3.75145342      0.95317832     -2.33906338
H      -4.66681224      2.07385759     -1.35920051
H      -2.90923740      2.24719101     -1.45412783
H      -5.52700539      0.21449855     -0.18665308
H      -4.30337997      0.90351787      1.86970270
H      -4.01962242      2.39193653      0.97914388
H      -1.90781798      2.44208113      1.93240039
H      -2.11632368      0.81268200      2.58199984
H      -1.20188313      1.67403825     -0.17542622
H      -0.03473497     -0.50044071      1.59445814
H       0.45867131      1.75037325      2.46483787
H       0.98790366      2.28488916      0.87173303
H       2.90765874      1.70360014      2.27438440
H       2.25686258      0.10787614      2.60683462
H       4.78612055      1.45281201      0.87611172
H       4.68078437     -1.99693485     -0.99790120
H       4.78487140     -1.12360128     -2.53801804
H       2.45792334     -1.82039927     -2.07974763
H       2.64308997     -0.07908215     -2.23724212
H       1.80103903     -2.87109079     -0.01544185
H       3.23346964     -2.34338722      0.86040494
H       1.63590237     -1.99804156      1.50970082
H       0.82365276      0.69812772     -1.08363170
H       0.24897537     -1.37857935     -2.19673617
H      -0.21920747     -2.14218041     -0.69250654
H      -1.55092113      0.18688121     -2.12025223
H      -2.21614050     -1.42557554     -1.90861095
H      -2.97336011     -1.23466712      1.74035692
H      -1.52964340     -1.96766293      1.06470236
H      -3.08034522     -2.21701997      0.28065575
