42
N#CCCN(CCC#N)c1ccc(N=Nc2ccc([N+](=O)[O-])cc2Cl)cc1
N      -5.80139037      2.46391048     -1.47042191
C      -5.22108408      1.48171383     -1.68573329
C      -4.50945107      0.22547812     -1.95044131
C      -4.45230157     -0.65196317     -0.69748006
N      -3.54767805     -0.10087788      0.33455182
C      -4.20208321      0.54495809      1.49337353
C      -4.15452598     -0.32669234      2.75097463
C      -5.02331008     -1.50205722      2.61577451
N      -5.72453304     -2.42072235      2.50653045
C      -2.16288827     -0.18407175      0.22248021
C      -1.29683923      0.54769315      1.05418823
C       0.10045544      0.46457144      0.94608349
C       0.69383726     -0.35327850     -0.01298245
N       2.08957831     -0.48270358     -0.12213889
N       2.60676495      0.60974699     -0.44435485
C       4.00815972      0.48464894     -0.49714001
C       4.61057117     -0.20874891     -1.56030274
C       6.00091944     -0.32810339     -1.64447103
C       6.80280217      0.26179979     -0.65922010
N       8.26390817      0.13864573     -0.74077655
O       8.93716664      0.69523221      0.13702997
O       8.73402959     -0.51479879     -1.68236767
C       6.22521814      0.97035071      0.40153064
C       4.83278529      1.08053996      0.47334066
Cl      4.15601892      1.96921679      1.79392308
C      -0.13727309     -1.09855934     -0.84222116
C      -1.53411912     -1.00890944     -0.72749589
H      -3.50617556      0.44052385     -2.33256825
H      -5.04016575     -0.32139058     -2.73839198
H      -5.46579981     -0.76362850     -0.28989054
H      -4.15435516     -1.67288809     -0.96138318
H      -3.75021122      1.52346969      1.69105250
H      -5.24934954      0.77402022      1.25503850
H      -3.13165642     -0.64663441      2.97487366
H      -4.49629681      0.26962257      3.60502325
H      -1.67670820      1.22342338      1.81390030
H       0.72599299      1.04876344      1.61680501
H       3.98311338     -0.66195898     -2.32580430
H       6.43633281     -0.87785303     -2.47738022
H       6.84161301      1.43557201      1.16836262
H       0.29844591     -1.76059512     -1.58590851
H      -2.10951765     -1.63023811     -1.40596218
