48
CCN(CC)c1ccc2cc(-c3nc4cc(S(N)(=O)=O)ccc4o3)c(=O)oc2c1
C      -6.71884379      1.53063294     -0.93808180
C      -6.21022153      0.14884064     -1.31938087
N      -5.34750875     -0.41319224     -0.27073313
C      -6.02507147     -1.15316068      0.80512545
C      -5.99959865     -0.38589838      2.12044142
C      -3.96273955     -0.28253028     -0.31829753
C      -3.32495643      0.64145599     -1.17047567
C      -1.92797242      0.78428602     -1.22965270
C      -1.11456759     -0.00363347     -0.42672530
C       0.33364067      0.09309938     -0.44136304
C       1.08514709     -0.68875013      0.35331312
C       2.51031673     -0.56099472      0.30166887
N       3.18229108      0.33415172     -0.42702377
C       4.50839110      0.09592332     -0.17964793
C       5.66180015      0.72123658     -0.66417944
C       6.89815306      0.23723874     -0.20297989
S       8.38270731      0.98572755     -0.81179969
N       8.59282201      2.25356988      0.26669903
O       8.11506500      1.58981208     -2.09529057
O       9.49163230      0.08766576     -0.59196863
C       6.98641047     -0.84320994      0.69064194
C       5.83122434     -1.46963859      1.17435422
C       4.62863755     -0.95534054      0.70513311
O       3.37660664     -1.37839674      1.01529389
C       0.45264508     -1.67026844      1.27429610
O       1.08788293     -2.39676757      2.03041525
O      -0.94139296     -1.73813519      1.25331400
C      -1.71923510     -0.91559918      0.41812291
C      -3.10878705     -1.06056045      0.48046931
H      -7.35009042      1.48504168     -0.04521247
H      -5.89744798      2.22323364     -0.73122448
H      -7.32066101      1.94838240     -1.75131817
H      -7.07226402     -0.51004131     -1.48356816
H      -5.70171400      0.18042409     -2.28989719
H      -7.07610222     -1.32440774      0.54065763
H      -5.59855743     -2.15492013      0.92713433
H      -6.54993773     -0.93907528      2.88819087
H      -6.46581989      0.59838675      2.01397083
H      -4.98038250     -0.23152838      2.48624262
H      -3.90640835      1.30069687     -1.80877165
H      -1.50151110      1.51983656     -1.90732011
H       0.78225703      0.81566395     -1.11834629
H       5.58979929      1.54489499     -1.36614521
H       8.53592526      3.14423276     -0.22858455
H       9.46322791      2.12822725      0.78482183
H       7.95959109     -1.20702214      1.01859990
H       5.86456626     -2.30268155      1.86606082
H      -3.49894843     -1.80690841      1.16381787
