22
Clc1ccc(Cl)c(-c2c(Cl)c(Cl)cc(Cl)c2Cl)c1
Cl      3.80760337     -1.87303619      1.71838878
C       2.89927462     -0.84742115      0.67845753
C       3.55855410     -0.04591456     -0.24944833
C       2.82036745      0.78544468     -1.09228293
C       1.42482082      0.81241110     -1.00422492
Cl      0.57031759      1.86547103     -2.07861646
C       0.74447996      0.00606291     -0.06925682
C      -0.73072156      0.00818359      0.05257695
C      -1.52404116     -0.88118253     -0.71417666
Cl     -0.75633394     -2.00905234     -1.79660577
C      -2.92391030     -0.86103560     -0.60502187
Cl     -3.94594428     -1.92143986     -1.51245399
C      -3.54936373      0.03441468      0.26122082
C      -2.78659686      0.91511837      1.02669318
Cl     -3.64372466      1.98781693      2.07887805
C      -1.38570762      0.90815673      0.92966452
Cl     -0.44558134      2.01051937      1.89614021
C       1.50700178     -0.82607702      0.77237055
H       4.64316044     -0.06306519     -0.32203403
H       3.33837497      1.41037360     -1.81610528
H      -4.63479077      0.04536937      0.34063818
H       1.01276112     -1.46111793      1.50519829
