34
CC(=O)Nc1ccc(S(=O)(=O)c2ccc(N)cc2)cc1
C       5.93701694     -1.76740347      0.26315293
C       4.65024793     -1.17026509     -0.25044921
O       4.34519088     -1.26346792     -1.43375906
N       3.90996013     -0.57620585      0.75609500
C       2.66763924      0.07973316      0.63500366
C       1.99458213      0.26042409     -0.57671677
C       0.76471069      0.92622051     -0.61624858
C       0.20266492      1.40842294      0.56659705
S      -1.36414761      2.24590685      0.50555648
O      -1.24185377      3.27823479     -0.50728260
O      -1.73759962      2.58831107      1.86656887
C      -2.55683269      1.05569383     -0.05956486
C      -3.10250576      1.16361792     -1.33912179
C      -4.03422158      0.21471916     -1.76778395
C      -4.46129863     -0.80764199     -0.91369458
N      -5.29970534     -1.81940707     -1.39335878
C      -3.86931373     -0.92527600      0.34828544
C      -2.93600509      0.01529643      0.79082151
C       0.86359874      1.24527045      1.78385108
C       2.09309697      0.58078452      1.81271247
H       6.37203653     -1.14405951      1.04970025
H       6.65942924     -1.83160168     -0.55569152
H       5.74035474     -2.76906931      0.65409392
H       4.29595286     -0.62487786      1.69059296
H       2.40445432     -0.09949725     -1.51598246
H       0.26614088      1.06724048     -1.57277279
H      -2.80603003      1.96577601     -2.01113279
H      -4.42998505      0.28291280     -2.77827544
H      -5.80111437     -2.32061974     -0.66655702
H      -5.91198304     -1.52525765     -2.14820591
H      -4.13674281     -1.75259569      1.00107743
H      -2.51131976     -0.07601906      1.78757146
H       0.43877381      1.63110333      2.70808825
H       2.59480793      0.46359678      2.77035698
