13
Nc1ccncc1
N       2.08500918     -0.12980806      0.22440549
C       0.70129250     -0.05357340      0.02415488
C       0.08654811      1.17658275     -0.19276551
C      -1.29717126      1.22696627     -0.26794415
N      -2.09832778      0.15329665     -0.10851447
C      -1.48342827     -1.01589051      0.16522940
C      -0.10766296     -1.16205505      0.25890713
H       2.47619883     -1.05375828      0.06815105
H       2.61319402      0.59590247     -0.25045593
H       0.66614547      2.08553442     -0.30246828
H      -1.81187367      2.16508718     -0.45372545
H      -2.14625571     -1.86145234      0.32393900
H       0.31633154     -2.12683212      0.51108684
