12
Clc1cccc(Br)c1
Cl      3.07133055      0.35410468     -0.02416114
C       1.36516822      0.12863875     -0.00971362
C       0.84024027     -1.16324993      0.03825566
C      -0.54279013     -1.35034807      0.05011644
C      -1.39473875     -0.24544902      0.01398259
C      -0.85811332      1.04188007     -0.03386590
Br     -2.01575626      2.53609048     -0.08270750
C       0.52170513      1.23714985     -0.04600680
H       1.50178464     -2.02539482      0.06646280
H      -0.95584604     -2.35550954      0.08745619
H      -2.47131101     -0.39743195      0.02344135
H       0.93832669      2.23951950     -0.08326007
