20
O=C(O)/C=C\c1cccc(O)c1
O       1.93528961      1.23973321      0.88951950
C       2.66251441      0.45700465      0.31448424
O       4.00041722      0.52425901      0.43490585
C       2.31173002     -0.65450411     -0.58539575
C       1.08342333     -1.11509560     -0.87005640
C      -0.21236580     -0.63339863     -0.37879252
C      -1.08929847     -1.54834247      0.22096661
C      -2.35356541     -1.14122946      0.65509710
C      -2.75280913      0.18265388      0.48743905
C      -1.88676963      1.08829358     -0.11240817
O      -2.31093151      2.37780735     -0.25019913
C      -0.62778226      0.69075976     -0.55858119
H       4.13635736      1.27376558      1.05160498
H       3.16592979     -1.15344877     -1.03443035
H       1.00681874     -1.97627302     -1.53279600
H      -0.79367842     -2.58589214      0.35950877
H      -3.02483361     -1.85500600      1.12469126
H      -3.73160454      0.50902453      0.82639349
H      -1.55198621      2.91497648     -0.53273871
H       0.03314451      1.40491218     -1.03970881
