51
CCCCN1CCCC[C@H]1C(=O)Nc1c(C)cccc1C.Cl
C       4.33425191      2.31863470     -0.07219841
C       3.45858366      1.56385428     -1.04846136
C       2.88002119      0.36836964     -0.29954458
C       1.98498973     -0.41988861     -1.25014291
N       1.37699504     -1.56267156     -0.71988216
C       2.27743433     -2.64855286     -0.40584488
C       2.33447433     -3.01288956      1.03839698
C       1.92896450     -1.91432211      1.98899693
C       0.64768831     -1.25103574      1.62325091
C       0.28769920     -1.46843148      0.16969157
C      -0.81144427     -0.63285811     -0.31452986
O      -0.81668802     -0.23452745     -1.49510328
N      -1.90089207     -0.24218294      0.51526848
C      -2.96676628      0.56506182      0.05667925
C      -4.13621228      0.06103581     -0.48673324
C      -4.27165684     -1.43054778     -0.58164247
C      -5.12003412      0.92529756     -0.91347541
C      -5.00150371      2.30112244     -0.82701949
C      -3.83283077      2.80844317     -0.28391977
C      -2.82499775      1.94405202      0.15370419
C      -1.57314987      2.49906951      0.73377347
Cl      0.68677137      0.00000000      0.00000000
H       3.99055573      2.19083841      0.97680058
H       5.41094319      2.01332664     -0.18711057
H       4.31644577      3.41534443     -0.27060669
H       2.67134887      2.25835550     -1.39227252
H       4.11347306      1.21643603     -1.87344161
H       2.29474621      0.76481384      0.52818479
H       3.75461618     -0.23492538      0.01285461
H       1.34728858      0.27046018     -1.83339669
H       2.72928944     -0.79378041     -2.03360110
H       1.92548921     -3.53370857     -0.97620168
H       3.26982088     -2.39340655     -0.82363110
H       1.72820600     -3.93011878      1.26875130
H       3.38754419     -3.29006343      1.28658459
H       1.82904786     -2.42223853      2.99340966
H       2.73493075     -1.17198170      2.13582030
H       0.64895073     -0.18962468      1.92379643
H      -0.16621873     -1.71198237      2.26222070
H      -0.16909057     -2.53269508      0.18206628
H      -1.92903561     -0.55860711      1.51446084
H      -4.42686953     -1.78192174      0.47332973
H      -5.14101060     -1.68161499     -1.20009652
H      -3.31693666     -1.84223747     -0.95088628
H      -6.02643008      0.51606281     -1.33558281
H      -5.76677510      2.98801313     -1.15893358
H      -3.69186621      3.89243599     -0.19547379
H      -1.19061451      1.87581416      1.56994548
H      -0.82006430      2.57578519     -0.09602726
H      -1.76271096      3.55418772      1.06081703
H      -0.68677137      0.00000000      0.00000000
