26
CC(C)(C)c1ccc(O)c(O)c1
C      -1.73336647     -1.62848481      0.84289147
C      -1.45220327     -0.22894793      0.25055346
C      -1.95706081      0.80993452      1.27504051
C      -2.28067162     -0.10767139     -1.04662196
C       0.03340602      0.02902924     -0.05848295
C       0.43923663      1.26829781     -0.60486350
C       1.78038108      1.54268014     -0.90024634
C       2.73813265      0.57328655     -0.65059382
O       4.06363964      0.77669453     -0.91574470
C       2.36329827     -0.65215293     -0.11399868
O       3.31151148     -1.60554796      0.13066085
C       1.03256908     -0.93055239      0.18152005
H      -1.20457090     -1.77897987      1.79131228
H      -1.43283481     -2.42624074      0.15365879
H      -2.80258444     -1.76415965      1.04554810
H      -3.00515572      0.62712936      1.53961164
H      -1.36806466      0.77107805      2.19908648
H      -1.89820186      1.83403733      0.89053847
H      -1.92661676     -0.81270905     -1.80810282
H      -2.22856533      0.89729256     -1.47954738
H      -3.33972806     -0.32156258     -0.86069473
H      -0.29628261      2.04421406     -0.80901983
H       2.04530929      2.50791829     -1.31867799
H       4.16185557      1.67173826     -1.28319784
H       4.15070415     -1.18990816     -0.15059106
H       0.80586344     -1.90641323      0.59882461
