55
C[C@]12CC[C@H]3[C@@H](CCC4=CC(=O)CC[C@@]43C)[C@@H]1CC[C@@]21CCC(=O)O1
C       1.81506066     -0.10451042      2.08744510
C       1.84807615      0.07931082      0.54197634
C       1.21044723      1.43548446      0.19626399
C      -0.29227638      1.46671915      0.52920424
C      -1.08318125      0.29951872     -0.12039635
C      -0.41150353     -1.08095954      0.15797425
C      -1.13831146     -2.18555922     -0.62129428
C      -2.61513786     -2.24093947     -0.25248444
C      -3.29688106     -0.90616608     -0.43945784
C      -4.44839328     -0.84111752     -1.13171432
C      -5.22250839      0.41608558     -1.24371449
O      -6.24818173      0.43637188     -1.91934511
C      -4.75896219      1.60465913     -0.44496205
C      -3.23981106      1.62449345     -0.35586441
C      -2.62513310      0.31033215      0.21208768
C      -2.88998976      0.25073323      1.73331143
C       1.07287174     -1.00982477     -0.22835407
C       1.92385814     -2.26123530     -0.03460836
C       3.37245948     -1.74425237      0.00327032
C       3.29344173     -0.18920976      0.02856195
C       3.67634446      0.41461040     -1.31830953
C       5.18839508      0.42506805     -1.25665732
C       5.42845580      0.61865042      0.20931153
O       6.48387315      0.95952831      0.71639640
O       4.29221784      0.33354071      0.91210444
H       2.29815929     -1.03208334      2.41056024
H       2.34049487      0.72075132      2.58242595
H       0.80155052     -0.12292616      2.49551471
H       1.72427425      2.24834188      0.72288840
H       1.30272851      1.64664754     -0.87512516
H      -0.68726361      2.42618455      0.17719019
H      -0.42336036      1.46323983      1.61530097
H      -0.99962856      0.45776021     -1.20824481
H      -0.49275845     -1.32223366      1.22346412
H      -0.68696392     -3.16095809     -0.40578187
H      -1.03280102     -2.01807089     -1.70106202
H      -3.09822276     -3.02118272     -0.85348909
H      -2.72060869     -2.55051585      0.79462486
H      -4.90586872     -1.70736988     -1.59742057
H      -5.22381127      1.56648488      0.54512820
H      -5.10100548      2.51599918     -0.94780751
H      -2.84482242      1.80509531     -1.36556397
H      -2.94042473      2.48631738      0.25245761
H      -3.95680273      0.12234370      1.95104226
H      -2.57194045      1.17094892      2.23445572
H      -2.36678576     -0.58200884      2.21341145
H       1.10924823     -0.77159374     -1.30348071
H       1.78196151     -2.97951441     -0.84874838
H       1.67873399     -2.77324252      0.90273333
H       3.92264552     -2.11393538     -0.86925332
H       3.88977343     -2.13592101      0.88714390
H       3.29012529     -0.13049725     -2.18433239
H       3.34814594      1.45619147     -1.39948022
H       5.62339942     -0.52657397     -1.57328897
H       5.60659775      1.25145686     -1.83600803
