41
CC(=O)OC[C@H]1CCC=C(CCC=C(C)C)C1
C       5.40783744      2.43150046      0.30023927
C       4.92657489      1.10899843      0.81303865
O       5.42161494      0.51096389      1.75751487
O       3.86589882      0.68210286      0.07463185
C       3.33000870     -0.58246575      0.48935507
C       2.14448908     -0.94452977     -0.41212294
C       1.60130703     -2.33465470     -0.06626895
C       0.46072634     -2.73064104     -1.00412650
C      -0.50854792     -1.61602508     -1.26266838
C      -0.27962497     -0.33035636     -0.93763685
C      -1.30709537      0.75059278     -1.20806034
C      -1.89998364      1.39923967      0.05127024
C      -2.70834498      0.43892918      0.88390631
C      -4.04904622      0.36463430      0.99560769
C      -4.68562128     -0.65178642      1.90769821
C      -5.03064824      1.22869536      0.25376271
C       1.02420292      0.11006548     -0.31042367
H       5.73309817      2.33030169     -0.73817922
H       6.25866865      2.76531185      0.90106030
H       4.61009436      3.17382865      0.38358511
H       4.11083555     -1.34734573      0.39893647
H       3.00910532     -0.51905843      1.53645586
H       2.49965949     -0.95257876     -1.45261364
H       1.23988078     -2.34256059      0.97070153
H       2.39728757     -3.08619920     -0.12870148
H       0.87083124     -3.06049543     -1.96611636
H      -0.07406212     -3.58503180     -0.57385166
H      -1.44756617     -1.89805158     -1.73462171
H      -2.12529352      0.35498319     -1.82451094
H      -0.83028669      1.53121083     -1.81478888
H      -2.50032299      2.26365848     -0.24952203
H      -1.10060546      1.81049331      0.67985256
H      -2.10205809     -0.25907161      1.46213033
H      -5.30167956     -0.15031309      2.66130105
H      -5.32282185     -1.33152729      1.33254243
H      -3.94370110     -1.25954665      2.43634356
H      -4.56476647      1.86807496     -0.49916537
H      -5.57070382      1.87231729      0.95568454
H      -5.76065445      0.60265891     -0.27076914
H       0.83662054      0.35101310      0.74345520
H       1.36469308      1.03266460     -0.79663694
