12
O=c1cc(O)nc[nH]1
O      -1.52723636      1.99561118     -0.84096707
C      -0.89647490      1.02958853     -0.43089373
C       0.56946543      0.99109534     -0.45415745
C       1.16420464     -0.10723522      0.01544463
O       2.53083717     -0.18864663      0.01389933
N       0.51861866     -1.20042421      0.51686532
C      -0.77031279     -1.14528135      0.52789727
N      -1.49613657     -0.08371653      0.07816504
H       1.10881873      1.84058306     -0.84483423
H       2.68378206     -1.07044045      0.39983960
H      -1.38064549     -1.97731124      0.91280078
H      -2.50492058     -0.08382248      0.10594050
