25
CCC(=O)CC(C)CC
C       3.65310067      1.31261131     -0.09169827
C       2.67165820      0.28325184     -0.62224647
C       1.40561115      0.19333799      0.21403573
O       1.23917948      0.87387335      1.22492988
C       0.37776646     -0.82653642     -0.25977753
C      -1.00115247     -0.68043320      0.40999676
C      -1.81977556     -1.95217414      0.16320997
C      -1.73130384      0.57257702     -0.11684587
C      -3.03749946      0.86560041      0.60873996
H       3.20502957      2.31166146     -0.07622071
H       4.54654121      1.34805996     -0.72259334
H       3.96485233      1.06914684      0.92939218
H       3.14500671     -0.70408973     -0.63158603
H       2.38653415      0.54586605     -1.64633727
H       0.80154843     -1.81368250     -0.03940399
H       0.27567283     -0.73790834     -1.34767745
H      -0.86311681     -0.57734270      1.49398904
H      -2.76736569     -1.92983210      0.70960219
H      -1.27356219     -2.83838862      0.50425603
H      -2.04137806     -2.08082253     -0.90164654
H      -1.93471205      0.46547595     -1.18946644
H      -1.08409264      1.45056511     -0.00840094
H      -2.87930649      0.93741983      1.68934571
H      -3.45161026      1.81855377      0.26349395
H      -3.78762568      0.09320939      0.41687111
