26
CCCC(CCC)C(=O)O
C      -3.68514716     -0.29667222     -1.04038526
C      -2.46273068     -0.66187721     -0.21238522
C      -1.24822321      0.18515605     -0.60551904
C       0.01887552     -0.19981433      0.17765739
C       1.24955522      0.52859630     -0.38975102
C       2.56243146      0.02907442      0.22170796
C       3.76356466      0.72751703     -0.39693409
C      -0.15632511      0.15695598      1.63794366
O      -0.34917738      1.26854237      2.10104692
O      -0.07840016     -0.91751769      2.44621783
H      -3.50065497     -0.46153166     -2.10673029
H      -3.95648089      0.75403533     -0.89646988
H      -4.54059759     -0.91213202     -0.74484404
H      -2.69924593     -0.52009819      0.84798654
H      -2.23671266     -1.72479853     -0.35616431
H      -1.06214046      0.05402587     -1.67905257
H      -1.48022465      1.24672343     -0.45063061
H       0.17556531     -1.28228831      0.08676010
H       1.15913588      1.60963110     -0.22263203
H       1.28887514      0.37728652     -1.47596250
H       2.65702084     -1.05191805      0.06657369
H       2.57031462      0.20445579      1.30319224
H       3.71521034      1.80888400     -0.23375581
H       4.69021441      0.35709579      0.05255380
H       3.81222244      0.54398161     -1.47501340
H      -0.20692498     -0.54717384      3.34458993
