44
Cc1ccc(OP(=O)(Oc2ccccc2)Oc2ccccc2C)cc1
C       5.97196891     -1.63992599     -0.65262661
C       4.62510543     -1.05367013     -0.34957281
C       4.39021933     -0.43367328      0.88217134
C       3.14421574      0.13182244      1.15992245
C       2.12297709      0.08683111      0.21152019
O       0.94162694      0.66316065      0.58101116
P      -0.42141969      0.59896440     -0.28124968
O      -0.33481088      1.19540554     -1.65917884
O      -1.50834240      1.28151107      0.69644124
C      -1.51680878      2.59951603      1.05384334
C      -2.48639425      2.96821931      1.98781664
C      -2.57655826      4.29053083      2.42344183
C      -1.69463009      5.24696339      1.92483965
C      -0.72918819      4.88068948      0.98794518
C      -0.64021307      3.55720075      0.54886759
O      -0.81041607     -0.96466782     -0.23207689
C      -1.95607065     -1.51292567     -0.73906546
C      -2.89261763     -0.78581311     -1.47475818
C      -4.04107900     -1.41407509     -1.95985441
C      -4.25585451     -2.76720568     -1.71249435
C      -3.32108478     -3.49802256     -0.97941422
C      -2.16288908     -2.87976079     -0.48729783
C      -1.16341299     -3.67859756      0.30136625
C       2.35111308     -0.51565654     -1.02258858
C       3.59933772     -1.08102257     -1.30187671
H       6.70296914     -0.84012020     -0.80627650
H       6.30368257     -2.28022135      0.17171648
H       5.94401774     -2.25769683     -1.55635943
H       5.17719117     -0.38438747      1.63118770
H       2.97456084      0.61162777      2.12039093
H      -3.17466974      2.22380894      2.38067804
H      -3.33196301      4.57265763      3.15152853
H      -1.76071922      6.27758575      2.26367659
H      -0.04321153      5.62748464      0.59601894
H       0.11920987      3.31180487     -0.18753858
H      -2.75768803      0.26854756     -1.69672469
H      -4.76660392     -0.84534286     -2.53542666
H      -5.15026269     -3.25439602     -2.09219038
H      -3.50213038     -4.55472384     -0.79490545
H      -1.05348390     -3.26040026      1.30769460
H      -0.19026320     -3.67348261     -0.20154852
H      -1.47691228     -4.72284024      0.40950475
H       1.58800185     -0.55430607     -1.79459051
H       3.76350078     -1.54139761     -2.27396814
