31
CCSc1nnc(C(C)(C)C)c(=O)n1N
C       5.50609612      0.57023531     -0.07193949
C       3.99238059      0.65457684     -0.16515681
S       3.25411077     -0.92867415      0.33081763
C       1.54236066     -0.52994014      0.24198432
N       1.16724551      0.53231550     -0.39277522
N      -0.18360451      0.87148099     -0.46837367
C      -1.08663188      0.08260163      0.03221051
C      -2.57854271      0.46879251     -0.04629494
C      -3.19609441      0.51136146      1.35958655
C      -3.33314069     -0.52325519     -0.94313071
C      -2.73287166      1.87521119     -0.66598858
C      -0.69830272     -1.22774054      0.69594700
O      -1.54508478     -2.04582231      1.03502345
N       0.66363297     -1.41332350      0.83830230
N       1.10504262     -2.59128953      1.53754599
H       5.83534466      0.35841200      0.95108050
H       5.95077581      1.52534258     -0.37086853
H       5.90794010     -0.20324739     -0.73532964
H       3.70377484      0.89010728     -1.19443001
H       3.62975224      1.45136207      0.49219897
H      -3.26062261     -0.47997232      1.81742737
H      -4.21451409      0.91572013      1.33240627
H      -2.60119688      1.14218741      2.03008824
H      -2.84582463     -0.61751033     -1.92041762
H      -4.36593292     -0.19742612     -1.11190398
H      -3.38148768     -1.52523370     -0.50697584
H      -3.78660630      2.17193433     -0.72256710
H      -2.32659289      1.91142116     -1.68362942
H      -2.20786881      2.63248019     -0.07192553
H       1.78905350     -3.06073317      0.94005622
H       0.29740977     -3.22137419      1.59919034
