28
CCNC(=O)COC(=O)c1ccccc1
C      -2.78156043     -0.18252790     -2.20495535
C      -3.43736689      0.67626914     -1.13825349
N      -2.49273619      1.07635412     -0.11952246
C      -1.63696502      2.14359669     -0.29526687
O      -1.67657404      2.89317360     -1.26739506
C      -0.62315569      2.32540801      0.83618167
O       0.51738866      1.47397131      0.71359593
C       0.32723544      0.18867984      1.09595745
O      -0.72274345     -0.27732287      1.51429172
C       1.57629897     -0.60290199      0.93531748
C       1.56900286     -1.94208821      1.34965367
C       2.71665665     -2.72628987      1.21718173
C       3.87578824     -2.17826468      0.66976029
C       3.89073705     -0.84739655      0.25350755
C       2.74483520     -0.05901095      0.38450169
H      -3.51968815     -0.49601712     -2.94937745
H      -1.98590187      0.36478778     -2.72086599
H      -2.33529185     -1.07992629     -1.76344901
H      -3.87686509      1.57010609     -1.59331423
H      -4.23382820      0.11550703     -0.63939942
H      -2.23649168      0.39070830      0.59252822
H      -0.26638246      3.36068683      0.80427872
H      -1.11172744      2.19558441      1.80978287
H       0.66994350     -2.38104161      1.77799955
H       2.70576866     -3.76443117      1.54046583
H       4.76914837     -2.78972550      0.56600700
H       4.79550381     -0.42279566     -0.17527890
H       2.77897105      0.97490722      0.04958754
