18
Nc1ccccc1S(=O)(=O)O
N      -0.45672659      1.64775059      1.17132586
C       0.20231323      0.76458706      0.28648054
C       1.58124634      0.90000696      0.08800175
C       2.28175880      0.00195525     -0.72422650
C       1.62153107     -1.07200735     -1.31800612
C       0.26342088     -1.26625154     -1.07958896
C      -0.42864721     -0.36311064     -0.26346487
S      -2.12023563     -0.69097032      0.15138422
O      -2.48846680     -1.98815165     -0.37214989
O      -2.86721708      0.50809269     -0.17258044
O      -2.07761968     -0.79754423      1.76607829
H       0.07393987      2.50676215      1.32159747
H      -1.38883080      1.90197791      0.81761070
H       2.12864403      1.71725003      0.55211998
H       3.34880762      0.13794054     -0.88614667
H       2.17052564     -1.77096291     -1.94493731
H      -0.23960455     -2.13009875     -1.50962977
H      -1.60483913     -0.00722578      2.11613173
