57
CC1CC2C3CC(F)C4=CC(=O)C=CC4(C)C3(F)C(O)CC2(C)C1(O)C(=O)CO
C       3.76079033     -1.90155712      1.86201816
C       2.89713283     -0.68942302      1.52433993
C       1.41504214     -0.91794011      1.91055645
C       0.64131803     -0.73225346      0.60907000
C      -0.86085320     -0.42050191      0.70677619
C      -1.58086575     -1.53346132      1.51455820
C      -3.07313296     -1.67030743      1.20822996
F      -3.24161537     -2.64921640      0.28024279
C      -3.61026935     -0.36747557      0.69254119
C      -4.44575674      0.36651833      1.45010519
C      -4.81859022      1.74487288      1.07728121
O      -5.61984992      2.38917723      1.74036608
C      -4.13679761      2.32926426     -0.09186963
C      -3.31874611      1.59034036     -0.85415303
C      -3.02593082      0.10120806     -0.65386788
C      -3.79488293     -0.60652136     -1.79766292
C      -1.47341939     -0.26991868     -0.71872526
F      -1.36668827     -1.52463867     -1.29184641
C      -0.61125739      0.65142343     -1.63200628
O      -1.04614767      0.56765237     -2.99203610
C       0.89416739      0.32328842     -1.60703545
C       1.46033917      0.32134708     -0.17489078
C       1.36754589      1.74481114      0.43610055
C       2.89948010     -0.26520391      0.01163537
O       3.04603596     -1.41458717     -0.82461675
C       4.04245085      0.72569525     -0.31017182
O       4.78711257      1.18842792      0.56060508
C       4.23600099      1.14099119     -1.76471414
O       5.52617199      1.70603646     -1.96585267
H       4.79912789     -1.73709708      1.55708476
H       3.39505111     -2.81085151      1.37401992
H       3.75512813     -2.08373609      2.94210421
H       3.25879677      0.13978199      2.14627514
H       1.24049947     -1.90978556      2.34125061
H       1.10572707     -0.17915253      2.65954499
H       0.71818917     -1.69311089      0.07396174
H      -0.99957309      0.52369482      1.24860724
H      -1.44982969     -1.31145819      2.58169286
H      -1.10507313     -2.50539637      1.33462943
H      -3.60024945     -2.00944496      2.10644337
H      -4.83912955      0.02445836      2.40106946
H      -4.36060559      3.36629429     -0.31246545
H      -2.90805358      2.06605433     -1.74421309
H      -4.87593039     -0.43007978     -1.72304660
H      -3.47949988     -0.24817034     -2.78354172
H      -3.65065463     -1.69145893     -1.78963028
H      -0.72871031      1.69661162     -1.33349239
H      -1.04684132     -0.38187907     -3.22515121
H       1.42131391      1.04712712     -2.23798437
H       1.04934150     -0.64721873     -2.09615740
H       1.90112889      2.46952900     -0.18872546
H       1.80153234      1.80295836      1.43882670
H       0.33913460      2.10393059      0.52421671
H       3.90132011     -1.83803005     -0.62700699
H       3.49331658      1.89669122     -2.02612239
H       4.14257676      0.27675771     -2.42527865
H       5.77318182      2.13493246     -1.12188839
