39
CCCC1COC(Cn2cncn2)(c2ccc(Cl)cc2Cl)O1
C       5.34514496     -1.39795902      0.89304372
C       4.05528932     -1.26856912      0.09806140
C       2.94292874     -0.64436997      0.93776657
C       1.61934872     -0.55555484      0.18926661
C       1.61678252      0.37071782     -0.99766726
O       0.23382406      0.67884527     -1.18173374
C      -0.39165676      0.53502671      0.12322780
C      -0.81880292      1.93471827      0.59977044
N      -1.88717987      2.50669624     -0.18630877
C      -1.80565801      3.07644674     -1.41891579
N      -2.99316276      3.49973260     -1.78584737
C      -3.77873841      3.17140898     -0.71779345
N      -3.14453410      2.56869550      0.29125363
C      -1.54425734     -0.47207319      0.05268642
C      -2.02770424     -0.88850076     -1.20839405
C      -3.08951023     -1.78937119     -1.32422368
C      -3.69438611     -2.29136902     -0.17977215
Cl     -5.00000654     -3.40225522     -0.31879893
C      -3.24916666     -1.89858372      1.07676183
C      -2.18529843     -0.99423852      1.19513150
Cl     -1.72681821     -0.57330422      2.80935829
O       0.62328366      0.03690785      1.02516452
H       5.69765882     -0.41810569      1.23064538
H       6.12855997     -1.84612656      0.27390213
H       5.20210055     -2.03389825      1.77251045
H       4.24690847     -0.65731943     -0.79086751
H       3.74647769     -2.26117478     -0.24964855
H       3.24326350      0.35442186      1.28019795
H       2.79089978     -1.23189414      1.85241549
H       1.26829374     -1.55628615     -0.09226742
H       2.14240607      1.31010126     -0.79404184
H       2.02627093     -0.08097148     -1.90483470
H       0.02773163      2.63009758      0.53071837
H      -1.13059463      1.94018662      1.64915632
H      -0.88968228      3.14858627     -1.98879438
H      -4.84016056      3.37942371     -0.67399150
H      -1.58706824     -0.50290382     -2.12724911
H      -3.43991780     -2.08567673     -2.30986101
H      -3.73286901     -2.29150747      1.96769514
