13
CC(O)C(N)=O
C      -1.67846210      0.11366378     -0.20840342
C      -0.20915394      0.34995987     -0.51649951
O       0.22758485      1.55597782      0.11369729
C       0.67296004     -0.82866487     -0.07583314
N       2.01348709     -0.55422898     -0.11173982
O       0.25817571     -1.93108550      0.25948040
H      -1.83680228     -0.02069485      0.86757713
H      -2.27874343      0.97719289     -0.51350894
H      -2.05542983     -0.77653659     -0.72154273
H      -0.07742678      0.47475812     -1.59690659
H       0.00410135      1.47698282      1.05860931
H       2.64430690     -1.25047733      0.26125563
H       2.31540243      0.41315283     -0.14366434
