15
N#Cc1ccc(O)c(O)c1
N       3.72803583     -1.39689529     -0.33828336
C       2.67896531     -0.90896690     -0.24916798
C       1.37675628     -0.31936220     -0.13752067
C       1.23015521      1.07422619     -0.20999640
C      -0.03603374      1.65322139     -0.10180316
C      -1.14112834      0.83394077      0.07750893
O      -2.37759573      1.40174886      0.18300801
C      -1.00206067     -0.55062412      0.15027333
O      -2.13677961     -1.29246014      0.32802004
C       0.25324857     -1.13856366      0.04389582
H       2.09836778      1.71578184     -0.35073198
H      -0.15976343      2.73103663     -0.15667155
H      -2.98975328      0.64812675      0.30154424
H      -1.89339584     -2.23404137      0.36042286
H       0.37098166     -2.21716875      0.09950188
