40
CN1CCOC(c2ccccc2)c2ccccc2C1.Cl
C       4.26475468     -0.05695872      0.86960179
N       2.89442420     -0.07107199      0.49867913
C       2.06865925     -0.98304009      1.22241722
C       1.17371637     -1.72288190      0.27676197
O      -0.18894447     -1.65766461      0.60735685
C      -0.62878421     -0.32736596      0.55094843
C      -2.08905031     -0.27031350      0.62188204
C      -2.72982064     -1.32463688      1.28630979
C      -4.09011059     -1.36479757      1.45166638
C      -4.88588030     -0.35180307      0.96124438
C      -4.25675134      0.68916116      0.30581910
C      -2.89018390      0.73995657      0.13398459
C      -0.01100203      0.35097073     -0.61374697
C      -0.84215617      0.23974088     -1.70085546
C      -0.39798852      0.83209059     -2.88105935
C       0.80400885      1.49734835     -2.98042305
C       1.61811694      1.59292410     -1.87907984
C       1.20719960      1.01957427     -0.70395790
C       2.32197341      1.24689028      0.29340893
Cl      0.68714976      0.00000000      0.00000000
H       4.74088108      0.83605509      0.38991103
H       4.76012194     -0.93553910      0.36104075
H       4.47824039     -0.13720258      1.93675994
H       1.54791502     -0.43999531      2.03316166
H       2.74306336     -1.70373339      1.79035964
H       1.43496982     -2.80911446      0.32577354
H       1.34106019     -1.43986378     -0.79455022
H      -0.26420238      0.16965849      1.49922945
H      -2.15685134     -2.14833989      1.69286154
H      -4.59595770     -2.17679608      1.96467779
H      -5.97005496     -0.38047203      1.09096060
H      -4.90077736      1.48009078     -0.07470872
H      -2.42438897      1.59172810     -0.38824204
H      -1.76724723     -0.29469391     -1.64504123
H      -1.01921180      0.76486195     -3.74241189
H       1.12637327      1.95439216     -3.92425748
H       2.58391913      2.11739630     -1.92768709
H       1.92391961      1.59028319      1.25705439
H       3.07604712      1.88316184     -0.16584970
H      -0.68714976      0.00000000      0.00000000
