44
CCCCNC(=O)Nc1c(C)n(C)n(-c2ccccc2)c1=O
C       6.98888925     -0.74240877      1.60263576
C       6.25673344     -1.14892912      0.33359931
C       4.91581789     -0.42772058      0.20559554
C       4.18944719     -0.83106657     -1.07633271
N       2.92945037     -0.12889071     -1.22889331
C       1.80812117     -0.54099553     -0.53763824
O       1.82070581     -1.45397313      0.27589628
N       0.72332902      0.22849690     -0.87257675
C      -0.57251476      0.07835908     -0.46087838
C      -1.30211167     -0.94999699      0.00144284
C      -0.89474779     -2.38061734      0.14958555
N      -2.62351020     -0.57752357      0.32121769
C      -3.07590035     -0.84212927      1.70062364
N      -2.74441194      0.79245657     -0.05927075
C      -4.00380215      1.37094141     -0.36312168
C      -4.11952642      2.74371965     -0.62147729
C      -5.35962850      3.31953439     -0.91758413
C      -6.50417980      2.52931932     -0.96521205
C      -6.40877669      1.16281630     -0.72091977
C      -5.16841959      0.58986804     -0.42268008
C      -1.50774283      1.24514533     -0.52590751
O      -1.16156503      2.32857364     -0.97630612
H       6.39703609     -0.98309999      2.49176070
H       7.19624253      0.33265036      1.60838998
H       7.94342250     -1.27307795      1.67593604
H       6.09622962     -2.23339730      0.34291989
H       6.88714478     -0.92102851     -0.53382015
H       4.29268804     -0.65288875      1.07931794
H       5.07611547      0.65792757      0.20807497
H       3.99876781     -1.91017494     -1.09410363
H       4.80143616     -0.58018432     -1.94967971
H       2.74070637      0.26270734     -2.14102244
H       0.94240140      1.16087660     -1.20756667
H      -0.15071796     -2.67143681     -0.59710547
H      -1.75459424     -3.04178333     -0.00595489
H      -0.50103166     -2.56956658      1.15266960
H      -2.42009152     -0.34851237      2.42705348
H      -3.07045265     -1.91863298      1.90137458
H      -4.09671422     -0.48882674      1.87071896
H      -3.25184782      3.39714693     -0.57941142
H      -5.42614454      4.38726849     -1.11117223
H      -7.46661727      2.97698490     -1.19866596
H      -7.29645673      0.53765065     -0.77046649
H      -5.12317855     -0.48558136     -0.27311130
