54
COc1cc2c(c(OC)c1OC)-c1ccc(OC)c(=O)cc1[C@@H](NC(C)=O)CC2
C       4.22427138     -3.32379097     -0.16834462
O       3.75804481     -2.25830417     -0.98518786
C       2.69468225     -1.52568038     -0.52617174
C       2.09354169     -1.68632879      0.72244260
C       1.00828712     -0.87929473      1.11112027
C       0.50139062      0.10982286      0.24001920
C       1.07874358      0.23199554     -1.04494340
O       0.54660442      1.17066323     -1.89940637
C       0.12593104      0.62088751     -3.14788256
C       2.19313888     -0.54774743     -1.39830573
O       2.77472583     -0.39176978     -2.63577408
C       3.82710745      0.57000812     -2.55502658
C      -0.66770671      0.97395166      0.66573902
C      -0.32306532      2.28106176      0.72635439
C      -0.95418702      3.41446765      1.06537909
C      -2.25138920      3.60984634      1.34190004
O      -2.82662724      4.79412959      1.76256184
C      -1.99938923      5.93485663      1.93924568
C      -3.24724518      2.47857537      1.10301937
O      -4.35715290      2.76012571      0.68612052
C      -2.98647775      0.99931639      1.27899574
C      -1.83796373      0.35418792      0.99587526
C      -1.95051337     -1.18674839      1.11093580
N      -1.78572922     -1.77425183     -0.21256810
C      -2.17853608     -3.05741506     -0.50532177
C      -1.89601674     -3.47267371     -1.92375455
O      -2.68720390     -3.81861592      0.31050848
C      -1.04095775     -1.81392942      2.19928690
C       0.31744184     -1.14538935      2.42218374
H       3.43740733     -4.06635353      0.00166662
H       5.04134544     -3.82075682     -0.70099668
H       4.62597876     -2.94691353      0.77784038
H       2.44180880     -2.44650174      1.41552113
H      -0.17139296     -0.43175699     -3.07120081
H       0.91067802      0.74588918     -3.89926695
H      -0.74675605      1.18976146     -3.48240737
H       4.61707394      0.24460563     -1.86935184
H       4.26572678      0.66882884     -3.55250133
H       3.44439316      1.55204142     -2.25523769
H       0.72958612      2.48764828      0.49091630
H      -0.30036000      4.28403404      1.11092133
H      -1.54754262      6.24126744      0.99027863
H      -1.23284097      5.74992040      2.69854519
H      -2.62934276      6.75704072      2.29165477
H      -3.87562377      0.44199590      1.56177592
H      -2.97242457     -1.46972474      1.40132864
H      -1.38638875     -1.20604753     -0.94724486
H      -2.69324835     -4.13640587     -2.27023281
H      -1.85993838     -2.60747914     -2.59176158
H      -0.93766099     -3.99739335     -1.95965303
H      -0.87704692     -2.87586791      1.97942758
H      -1.57597049     -1.78331128      3.15795555
H       0.20493991     -0.20781742      2.98052867
H       0.93384976     -1.78865978      3.06249367
