31
NC(=O)NN=C[C@@H](O)[C@@H](O)[C@H](O)[C@H](O)CO
N       4.22283252      1.38894998      1.23761417
C       3.91994098      1.13515460     -0.07001381
O       4.57427647      1.64731950     -0.96804461
N       2.84985717      0.28217124     -0.19870234
N       2.37618075     -0.07677822     -1.42546821
C       1.44455017     -0.98361882     -1.46154125
C       0.82131078     -1.71565534     -0.27518911
O       1.80598467     -1.98416461      0.73023694
C      -0.34589661     -0.92396670      0.36025194
O       0.09430285      0.38226185      0.77046315
C      -1.56285848     -0.81287313     -0.57102221
O      -1.23688620      0.02070172     -1.69323247
C      -2.83831691     -0.27504963      0.10075681
O      -3.85579696     -0.22214357     -0.92458966
C      -2.73335978      1.12376005      0.71592234
O      -4.05516576      1.53215446      1.09646844
H       4.92495127      2.11274030      1.32942983
H       3.43584472      1.49124950      1.86253430
H       2.52098447     -0.21888853      0.62623250
H       1.03295561     -1.23982850     -2.45298109
H       0.45902406     -2.68538861     -0.63418651
H       2.52857653     -2.47487366      0.29376304
H      -0.64494678     -1.44280217      1.27888465
H       0.35708359      0.85285708     -0.05001817
H      -1.79307890     -1.80234452     -0.98558818
H      -2.09524336      0.17812590     -2.14350195
H      -3.19408115     -0.98285130      0.85825350
H      -4.58021017      0.29800592     -0.51387418
H      -2.10737860      1.12942794      1.61119341
H      -2.36269603      1.85430436     -0.00939801
H      -3.96274092      2.41204292      1.50534676
