53
O=C(NCc1ccc(OC(F)(F)F)cc1)C1c2ccccc2C(=O)N1CC(F)(F)c1ccccn1
O       0.61128025      0.56471869      2.30565576
C       0.09326189      0.40491690      1.20120383
N       0.41655818      1.17757241      0.10038180
C       1.53753773      2.08683451      0.11917670
C       2.78073669      1.38907963     -0.36991714
C       3.14058368      1.43014222     -1.72025256
C       4.26850513      0.73918308     -2.16946295
C       5.04892456     -0.01178029     -1.28543775
O       6.12015345     -0.62765189     -1.86568373
C       6.96278823     -1.41038358     -1.03580209
F       7.96307030     -1.91894199     -1.79320248
F       7.51936164     -0.66282259     -0.05742446
F       6.28760814     -2.44431382     -0.48751136
C       4.68872805     -0.06186718      0.06051457
C       3.56292814      0.63344756      0.51302707
C      -0.85345137     -0.78130921      0.90421313
C      -0.05666477     -2.00072970      0.52296388
C       0.89458764     -2.69869735      1.24993354
C       1.51571617     -3.79596615      0.64342781
C       1.18348255     -4.18127454     -0.66809514
C       0.22345091     -3.47507366     -1.39532286
C      -0.37628396     -2.39716522     -0.77486094
C      -1.40698535     -1.49297896     -1.29633402
O      -1.88205234     -1.54452255     -2.41454604
N      -1.70163876     -0.59563271     -0.28612546
C      -2.75852169      0.42938055     -0.38490783
C      -3.69763273      0.53605492      0.83499715
F      -2.92577987      0.85882765      1.92453422
F      -4.18747600     -0.71274996      1.11452648
C      -4.81982888      1.54875879      0.64374394
C      -5.54312861      1.96522387      1.76766274
C      -6.59625006      2.86187973      1.60386127
C      -6.90499783      3.32342035      0.32995156
C      -6.14564727      2.86644558     -0.73510127
N      -5.12004001      1.99444130     -0.60896969
H       0.11729546      0.83017173     -0.80382188
H       1.28890087      2.92682055     -0.53593641
H       1.69344508      2.48920418      1.12514654
H       2.54531469      1.99577359     -2.43324286
H       4.53736827      0.78335595     -3.22318241
H       5.25288112     -0.63154596      0.79239222
H       3.29118329      0.57687751      1.56780123
H      -1.49147170     -0.99367486      1.76713298
H       1.16395828     -2.40072715      2.25986433
H       2.27038659     -4.35765470      1.19104340
H       1.68152543     -5.03696298     -1.11843624
H      -0.04679849     -3.76036918     -2.40691719
H      -3.34013817      0.20624529     -1.28797528
H      -2.25552388      1.38843812     -0.55224283
H      -5.29964621      1.58433824      2.75568541
H      -7.17159325      3.19595796      2.46594650
H      -7.72310883      4.01756165      0.17048453
H      -6.35686239      3.18972364     -1.75412635
