21
OCC1CCC(CO)O1
O      -2.07307519      2.42191041     -0.22175192
C      -1.60407767      1.48772111      0.74937173
C      -1.19716709      0.19088108      0.05788096
C      -0.70509250     -0.88201634      1.00837089
C       0.14439109     -1.72995207      0.09258995
C       0.77721367     -0.70224767     -0.83343078
C       2.15772642     -0.23783586     -0.36054109
O       2.68087825      0.72183927     -1.27787616
O      -0.09846011      0.45264182     -0.84449195
H      -1.41970527      2.39884643     -0.94729591
H      -0.75203783      1.94838138      1.25972498
H      -2.40442658      1.31678998      1.47497884
H      -2.02336858     -0.18122031     -0.56060819
H      -0.07987196     -0.45127070      1.79945013
H      -1.52009780     -1.43810351      1.47977850
H      -0.50477552     -2.39534856     -0.48994515
H       0.86894311     -2.35415866      0.62318279
H       0.84605476     -1.07510581     -1.86120009
H       2.86003524     -1.07450880     -0.30412119
H       2.10248457      0.24675125      0.61953700
H       1.94442898      1.33600557     -1.46360333
