26
O=C(c1ccccc1)n1ncc2c(=O)[nH]cnc21
O      -0.50258274      1.99505701     -0.34243229
C      -0.57787131      0.79101743     -0.09168804
C      -1.94549777      0.20584152      0.00866088
C      -2.98386374      1.02735784      0.47326879
C      -4.28726688      0.53559429      0.56505889
C      -4.56431762     -0.77556761      0.18309092
C      -3.54192320     -1.59283782     -0.29745310
C      -2.23611265     -1.10349549     -0.39147968
N       0.62721391      0.07562499      0.10206206
N       0.59649503     -1.23075770      0.53791529
C       1.87935648     -1.58289894      0.66010690
C       2.74242601     -0.54810097      0.31127926
C       4.16744444     -0.39859399      0.26168931
O       4.96523988     -1.27903570      0.55736451
N       4.55461653      0.85706576     -0.16176432
C       3.65739012      1.84969415     -0.50222046
N       2.36684980      1.73251504     -0.46590155
C       1.94064711      0.51032880     -0.04640921
H      -2.77977491      2.05606503      0.76517040
H      -5.08506003      1.17732707      0.93048920
H      -5.57920131     -1.15927253      0.25344802
H      -3.76106422     -2.61289112     -0.60390966
H      -1.46467312     -1.75753198     -0.78895951
H       2.12462522     -2.58216433      0.99892625
H       5.54836181      1.02162742     -0.21637373
H       4.13854317      2.78803184     -0.82133373
