28
O=[N+]([O-])c1ccc2ccc3cccc4ccc1c2c34
O       3.50370128     -0.83009612      2.75070110
N       3.67630282     -0.31766394      1.63674253
O       4.74518196     -0.29932886      1.01119733
C       2.54113421      0.34777047      1.02082024
C       2.69131458      1.71218914      0.74595129
C       1.63570287      2.40583211      0.16552697
C       0.43798408      1.74792667     -0.14496565
C      -0.62209525      2.45229195     -0.72785246
C      -1.81882576      1.80962972     -1.04635982
C      -1.98577616      0.44415790     -0.79215022
C      -3.18526724     -0.20839768     -1.11235381
C      -3.34310751     -1.56917177     -0.85801457
C      -2.30307979     -2.29465987     -0.28089649
C      -1.09264780     -1.66802190      0.04985896
C      -0.04328595     -2.38671407      0.62634529
C       1.15770947     -1.75349514      0.95327907
C       1.35605893     -0.37076671      0.72022791
C       0.29470602      0.36016647      0.12785500
C      -0.92625489     -0.28752553     -0.20373752
H       3.61694446      2.23342449      0.98087895
H       1.75436420      3.46740540     -0.04466347
H      -0.52911819      3.51514076     -0.94279749
H      -2.62151207      2.38869969     -1.49825078
H      -4.00872981      0.34036416     -1.56434262
H      -4.27707671     -2.06477355     -1.11021877
H      -2.44516837     -3.35640082     -0.09071141
H      -0.14790128     -3.45071697      0.82975768
H       1.93874189     -2.36726599      1.40011255
