41
CCCCCCCCCCCCC(=O)O
C      -5.39282750     -2.11755123     -0.47616853
C      -4.98939591     -1.29229821     -1.68826767
C      -4.52906074      0.12424183     -1.33743438
C      -3.23622839      0.15653005     -0.51758894
C      -2.76284357      1.59502402     -0.29177272
C      -1.53907682      1.69704265      0.62327359
C      -0.27738217      1.07201271      0.02401260
C       0.93723620      1.30341323      0.92608904
C       2.20011290      0.67598446      0.33114233
C       3.41196932      0.90584326      1.23675253
C       4.72423260      0.39436205      0.63681795
C       4.76541142     -1.12421809      0.47184152
C       6.11881958     -1.59493425      0.01063302
O       7.08069135     -0.91210519     -0.29495724
O       6.18656870     -2.93973783     -0.05229728
H      -5.80279620     -3.08049761     -0.79745549
H      -6.15872170     -1.60303729      0.11264412
H      -4.53643768     -2.32309745      0.17257778
H      -5.85125356     -1.21990206     -2.36239939
H      -4.19957714     -1.81578635     -2.23945037
H      -4.37367069      0.67537260     -2.27327110
H      -5.32620629      0.64488459     -0.79285989
H      -2.46399428     -0.41442292     -1.04466479
H      -3.39581031     -0.32529705      0.45334073
H      -3.57769448      2.17233009      0.16267760
H      -2.54074157      2.06802990     -1.25610923
H      -1.35143919      2.75915233      0.82441547
H      -1.76210586      1.22790230      1.58927944
H      -0.42053945     -0.00555696     -0.11312705
H      -0.08693678      1.50432422     -0.96565387
H       1.09230977      2.38039002      1.06406554
H       0.74576074      0.87416269      1.91711670
H       2.39306769      1.10775082     -0.65828775
H       2.03421310     -0.39802572      0.19121418
H       3.51915606      1.98122176      1.42586430
H       3.24270279      0.42981795      2.21027951
H       5.54674471      0.70867766      1.29210186
H       4.90180774      0.87824370     -0.33181263
H       4.54531551     -1.60590648      1.43090022
H       4.02966691     -1.44845259     -0.27089068
H       7.09895314     -3.11588761     -0.36436803
