18
c1ccc2c(c1)CCN2
C      -2.26043214      0.77821529     -0.31491767
C      -2.37327680     -0.56719605      0.07213646
C      -1.23496153     -1.31730968      0.38217687
C       0.00139350     -0.70972561      0.27346487
C       0.10768048      0.63250444     -0.09095666
C      -1.00910201      1.39312196     -0.39020639
C       1.53968360      1.03790578     -0.04261616
C       2.21419955     -0.34476196      0.02796623
N       1.24791907     -1.29357322      0.61028734
H      -3.15755701      1.34873026     -0.54277572
H      -3.35628620     -1.02568536      0.14461010
H      -1.32414625     -2.34742203      0.70795415
H      -0.92037851      2.43822063     -0.66647888
H       1.85851089      1.59585776     -0.92706476
H       1.73719442      1.61992844      0.86347454
H       3.13322344     -0.31186259      0.62196465
H       2.48295165     -0.68408207     -0.98143494
H       1.31338385     -2.24286600      0.25241598
