35
CCNC(=S)N1CCN(C(=O)OCC)CC1
C       5.05116472      2.21442969     -0.10303559
C       4.80403794      0.73206802      0.10672411
N       3.38903222      0.41030952     -0.04630336
C       2.80305758     -0.80671431      0.25744762
S       3.65469985     -2.10189540      0.90537379
N       1.42787664     -0.83199770     -0.01802165
C       0.62280426      0.39921145     -0.14367957
C      -0.82484487      0.23375607      0.33887127
N      -1.50382644     -0.89267511     -0.29866524
C      -2.87541570     -0.98365636     -0.41017541
O      -3.45676945     -1.91425011     -0.95507805
O      -3.51023828      0.07695529      0.15859877
C      -4.93916006      0.02393745      0.07644674
C      -5.49676712      1.26311304      0.74929023
C      -0.66796093     -1.98628548     -0.78418944
C       0.65703210     -2.09397473     -0.01945669
H       6.11388551      2.44580177      0.01658841
H       4.74275920      2.52540489     -1.10672549
H       4.48459085      2.81102584      0.61961467
H       5.13346048      0.44204599      1.10951146
H       5.36601421      0.14631944     -0.62852750
H       2.93608254      0.88814288     -0.81193978
H       0.62885752      0.66572543     -1.20749274
H       1.09247044      1.21592028      0.41449300
H      -1.38120301      1.15946847      0.15866250
H      -0.83972200      0.03988464      1.41815175
H      -5.24937337      0.00311661     -0.97429267
H      -5.30688198     -0.87186241      0.58932969
H      -5.17787086      1.30997416      1.79582368
H      -6.58967581      1.26897653      0.71227090
H      -5.12127116      2.16864708      0.26129561
H      -1.21469570     -2.93346687     -0.72352507
H      -0.47168557     -1.78387128     -1.84406038
H       1.25994832     -2.89428948     -0.46036572
H       0.45958792     -2.34929532      1.02901311
