46
CC(=O)C=C(C)NC1CCCCC1NC(C)=CC(C)=O
C      -1.28790749     -2.25128123      2.20393848
C      -1.64534615     -0.92825571      2.83375555
O      -1.52591362     -0.73413531      4.04524557
C      -2.22333416      0.15923488      2.00155830
C      -1.95171924      0.44866311      0.71288577
C      -2.72345309      1.58910043      0.08260589
N      -0.97823079     -0.19772488     -0.04768195
C      -0.49793270      0.19654314     -1.39048165
C      -1.41848791     -0.37473404     -2.47996418
C      -1.28762047     -1.88699511     -2.64456144
C       0.15369938     -2.29869250     -2.90757522
C       1.08465995     -1.78789307     -1.81601330
C       0.97964247     -0.26511744     -1.63606168
N       1.87210109      0.12139710     -0.53210328
C       2.12300031      1.42799790     -0.12623649
C       2.42030137      2.43679364     -1.20619911
C       2.16058938      1.80711773      1.16581493
C       1.84616807      0.87848228      2.29620741
C       1.97553096      1.44164609      3.68485789
O       1.50380247     -0.28735743      2.09416222
H      -1.51244595     -3.05077106      2.91611522
H      -1.88672502     -2.43988351      1.31000870
H      -0.22551549     -2.27955251      1.95879320
H      -2.93735720      0.75682421      2.55931928
H      -3.42951088      2.04865052      0.78340184
H      -2.04420289      2.38207922     -0.24496008
H      -3.30683440      1.24087939     -0.77306635
H      -0.19429842     -0.48833781      0.54551452
H      -0.51196486      1.29073987     -1.45766764
H      -2.46646693     -0.13281827     -2.28015362
H      -1.16689604      0.10340701     -3.43511379
H      -1.91844352     -2.22002773     -3.47661022
H      -1.65768724     -2.39182591     -1.74428137
H       0.47803697     -1.90633876     -3.87866068
H       0.22002401     -3.39083301     -2.96812471
H       2.11841379     -2.06135521     -2.06155491
H       0.85088935     -2.29962967     -0.87256975
H       1.33607362      0.20500035     -2.56147641
H       1.77392760     -0.50033738      0.28160951
H       1.51963537      2.64753737     -1.79419988
H       3.19478150      2.05718870     -1.87925590
H       2.77841774      3.38755681     -0.79537980
H       2.39698714      2.82781202      1.44660088
H       1.36059986      2.34343916      3.78409855
H       1.62685617      0.70321095      4.41284311
H       3.02415588      1.67259571      3.89061657
