34
CN1CCN=C(c2ccccc2)c2cc(Cl)ccc21
C      -3.29698406      0.19613630      1.49862632
N      -2.18052437     -0.32484364      0.71471658
C      -2.21999674     -1.79301265      0.50088294
C      -1.15624047     -2.37531927     -0.43914170
N       0.19628876     -2.03191560      0.00770185
C       0.55552497     -0.79388129     -0.12702629
C       1.91696645     -0.40330733      0.35821891
C       2.95402758     -1.34253302      0.30464586
C       4.23296909     -1.00214206      0.74853529
C       4.47820806      0.27320566      1.25638740
C       3.44484639      1.20724360      1.32918751
C       2.16383870      0.87052604      0.88594259
C      -0.30720922      0.25637429     -0.75116454
C       0.24827638      1.02547875     -1.78715342
C      -0.50467603      2.03539006     -2.36979098
Cl      0.16908116      2.98863542     -3.63233813
C      -1.80053983      2.28141792     -1.93321296
C      -2.35421290      1.50116808     -0.91070021
C      -1.63375800      0.45800116     -0.30293298
H      -4.23258445      0.16600085      0.92949876
H      -3.10585146      1.22299721      1.82991677
H      -3.43553426     -0.40735900      2.40270256
H      -2.11934751     -2.27415674      1.48195933
H      -3.20759808     -2.06815273      0.10908918
H      -1.24550915     -3.46797312     -0.42970593
H      -1.32384166     -2.07707829     -1.48192114
H       2.76658354     -2.34111567     -0.08359334
H       5.03464266     -1.73461332      0.70241830
H       5.47370320      0.53580493      1.60560457
H       3.63451899      2.19567053      1.74002542
H       1.36603327      1.60260568      0.97689183
H       1.26011381      0.83316427     -2.13402598
H      -2.39365056      3.07229028     -2.38527362
H      -3.37756426      1.71529272     -0.61497075
