17
OCc1cc(Br)ccc1O
O      -2.72524625      0.31571882     -0.15545287
C      -1.79700117     -0.74289707      0.07678705
C      -0.36683356     -0.26694063      0.03740725
C       0.64838322     -1.21759038      0.25234452
C       1.99402318     -0.84233489      0.22897299
Br      3.33363359     -2.14429005      0.52154875
C       2.35664276      0.48022800     -0.00757162
C       1.36339494      1.43347455     -0.22222374
C       0.02016400      1.05910061     -0.19893402
O      -0.88810635      2.05611506     -0.41884697
H      -3.61081841     -0.08922761     -0.11028406
H      -2.01491737     -1.17099432      1.06082926
H      -1.95305535     -1.50228835     -0.69656097
H       0.38499219     -2.25665021      0.43894089
H       3.40065033      0.77937963     -0.02721542
H       1.63088825      2.47022652     -0.40824022
H      -1.77679400      1.63897032     -0.37150082
