23
Clc1ccc(Oc2ccc(Cl)c(Cl)c2Cl)cc1
Cl      5.21511834     -0.15927062      1.10496109
C       3.65484537     -0.16032888      0.38040439
C       2.62880134     -0.91580668      0.94798321
C       1.36092560     -0.91750903      0.36156408
C       1.12540959     -0.14899424     -0.78223364
O      -0.08947103     -0.12586584     -1.42991061
C      -1.21207292      0.03284960     -0.64406903
C      -1.33983026      1.16088760      0.17246203
C      -2.49478836      1.33818607      0.93031010
C      -3.52999439      0.39971875      0.86371087
Cl     -4.92526636      0.70165337      1.84215603
C      -3.41993893     -0.72573858      0.02983304
Cl     -4.71468580     -1.88199116     -0.05051236
C      -2.25418585     -0.90387063     -0.73477949
Cl     -2.05997627     -2.27339525     -1.78455006
C       2.16088388      0.58685167     -1.36146565
C       3.42754301      0.58794535     -0.77416260
H       2.81201959     -1.51114676      1.83869917
H       0.57575015     -1.53031367      0.79510179
H      -0.54737713      1.90469248      0.21631903
H      -2.58612074      2.21479743      1.56878523
H       1.98199704      1.15994396     -2.26759499
H       4.23041413      1.16670508     -1.22301165
