8
O=C([O-])C(=O)O.[K+]
O       0.69339257     -1.39338864      0.04580796
C       0.74906921     -0.16752626      0.41780866
O       1.63549987      0.39864542      1.12271450
C      -0.45620769      0.63507841     -0.10769881
O      -0.62734518      1.82335360      0.11347164
O      -1.24674276     -0.21412225     -0.83112150
K       0.00000000      0.00000000      0.00000000
H      -0.74766602     -1.08204028     -0.76098244
