44
NCCCCCCN.O=C(O)CCCCC(=O)O
N       3.79373756     -0.60636701      0.18949299
C       3.00457055      0.61839603      0.14181390
C       1.59899288      0.38753650     -0.42004559
C       0.71106611     -0.46538720      0.49229750
C      -0.68829764     -0.71851459     -0.08067404
C      -1.54721943      0.54709212     -0.17726252
C      -2.96443268      0.27010462     -0.68513835
N      -3.72778413     -0.55098123      0.24687049
O       2.42185188     -0.51067950      1.78673091
C       2.39421510      0.15245575      0.76501524
O       3.00797304      1.35040059      0.70912298
C       1.75858022     -0.21755565     -0.54834750
C       0.66149705     -1.27190471     -0.40161419
C      -0.58554465     -0.80715033      0.36046489
C      -1.33655802      0.32849231     -0.33392904
C      -2.64051340      0.63702759      0.35296448
O      -3.08982405      0.12689514      1.36384356
O      -3.32528968      1.60531365     -0.28781424
H       4.71865063     -0.39689681      0.56297018
H       3.37153422     -1.26696807      0.84008100
H       2.94373098      1.05624675      1.14430079
H       3.52579401      1.33951844     -0.49727953
H       1.66832370     -0.07860085     -1.41088143
H       1.13718812      1.37043892     -0.56619010
H       0.62394553      0.01240585      1.47562031
H       1.18207160     -1.44151408      0.65557777
H      -0.60118261     -1.18225891     -1.07078641
H      -1.18593312     -1.44985315      0.56738254
H      -1.59384769      1.03977592      0.80196853
H      -1.07943677      1.25832578     -0.86712066
H      -2.92208214     -0.23150673     -1.65794143
H      -3.48712141      1.22207036     -0.82981858
H      -3.80245202     -0.07294080      1.14372774
H      -4.67981627     -0.66012190     -0.10000712
H       3.39279420      1.46115629      1.60415940
H       1.35973807      0.68354951     -1.02442880
H       2.55357397     -0.61136450     -1.19175931
H       1.06998560     -2.15277857      0.10931687
H       0.36064678     -1.60529151     -1.40250546
H      -0.31768517     -0.50396227      1.37960420
H      -1.25679032     -1.66907597      0.46824973
H      -0.73392262      1.24224733     -0.32840065
H      -1.55668714      0.04800077     -1.36981630
H      -4.13804087      1.71422410      0.24959095
