35
NC(N)=O.O=S(=O)([O-])O.OC[P+](CO)(CO)CO
N      -1.05376735     -0.47041349      0.07855654
C      -0.01322735      0.35512655      0.32063028
N       1.06854013      0.07379471     -0.43664847
O      -0.04690993      1.25942660      1.13708905
O      -1.38627144     -0.93578360     -0.17400581
S      -0.42541435      0.13163638      0.05140906
O       0.10752363      0.22063662      1.40461625
O      -0.71330297      1.40266112     -0.59284232
O       0.88880281     -0.38336163     -0.71229477
O      -0.72349190      2.19257829      0.58968895
C      -0.61167563      1.37812547     -0.57341499
P      -0.17147393     -0.22432275     -0.00577870
C      -0.33158080     -1.37186993     -1.32835007
O       0.45531335     -0.87824949     -2.40140312
C      -1.26916202     -0.72222969      1.27440227
O      -1.02640493      0.13115012      2.38215593
C       1.47571532     -0.24778481      0.60253496
O       2.31957934     -0.10456342     -0.53589729
H      -1.18181494     -0.73438275     -0.88789515
H      -1.90380186     -0.17648243      0.54423010
H       1.88798131      0.60123693     -0.16073736
H       1.24299999     -0.90830611     -0.59522499
H       1.52866231     -0.43578889      0.02311759
H      -0.85662708      3.10499853      0.27204862
H       0.14667245      1.80399231     -1.23581598
H      -1.57691055      1.37712581     -1.08662623
H       0.02538746     -2.36930383     -1.05806499
H      -1.36540543     -1.45516548     -1.67324337
H       1.33203304     -0.65338275     -2.01814469
H      -1.08650613     -1.75243948      1.59061088
H      -2.31830208     -0.63030101      0.98078865
H      -1.03028117      1.04813957      2.02831275
H       1.67082529      0.57366448      1.29707243
H       1.71554956     -1.19576065      1.09129479
H       3.22674584     -0.00440130     -0.19217081
