27
C=C(C)Cn1c(N)cc(=O)n(C)c1=O
C       3.34772496      0.79001361      0.25004037
C       2.23312391      0.12872154      0.61010100
C       2.19607699     -1.37510538      0.63053962
C       0.98475606      0.85298733      1.07966473
N      -0.17612226      0.51310031      0.24802090
C      -0.39804348      1.17166247     -0.95270061
N       0.50194607      2.09236700     -1.46047910
C      -1.51900337      0.91366130     -1.63716982
C      -2.50405547     -0.05919672     -1.15723146
O      -3.53327910     -0.22595455     -1.80736166
N      -2.18406009     -0.71922057      0.00388376
C      -3.11950902     -1.69592766      0.52676563
C      -1.06374634     -0.43280427      0.77090109
O      -0.87390185     -0.99051552      1.85518603
H       3.40051791      1.87488144      0.27091408
H       4.24642718      0.26257518     -0.05766731
H       3.16945887     -1.81186690      0.38221536
H       1.47167218     -1.75542725     -0.09614728
H       1.91977753     -1.73581017      1.62648445
H       0.80164292      0.58972667      2.12815608
H       1.11883187      1.94219072      1.07332428
H       0.35531949      2.30669771     -2.44382982
H       1.46228947      1.79655343     -1.30446109
H      -1.76468392      1.40451524     -2.57001457
H      -2.57653286     -2.58268426      0.86949327
H      -3.64031921     -1.25422101      1.38252656
H      -3.85630845     -2.00091968     -0.22115449
