36
CC(C)OC(=O)c1ccccc1C(=O)OC(C)C
C      -2.67688810     -1.53821000      1.30714530
C      -2.75512140     -0.02854855      1.11040961
C      -2.50140281      0.69857984      2.42526895
O      -1.73259485      0.39568539      0.19078536
C      -2.02615040      0.26585758     -1.12548234
O      -3.08464734     -0.09346019     -1.61220060
C      -0.88962577      0.76664539     -1.92391862
C      -1.18233503      1.64357053     -2.97887033
C      -0.15019108      2.19533904     -3.74040611
C       1.17676520      1.87166509     -3.45811506
C       1.47504859      0.98400887     -2.42260168
C       0.44075887      0.42476977     -1.65607815
C       0.77271913     -0.58556224     -0.63567002
O       0.23387309     -1.67524101     -0.55833868
O       1.74098240     -0.08722525      0.17048989
C       2.14331245     -0.93712303      1.26010242
C       3.21630837     -1.90641558      0.77841469
C       2.68464293     -0.03189046      2.35945471
H      -2.84720412     -2.06487980      0.36258854
H      -1.68286679     -1.83639557      1.65834375
H      -3.42155021     -1.88158572      2.03177490
H      -3.74645238      0.25822251      0.73892561
H      -2.54058340      1.78280279      2.27387325
H      -1.50209792      0.47194613      2.81378905
H      -3.24342596      0.42515597      3.18152232
H      -2.21575066      1.90373519     -3.20246761
H      -0.38242792      2.87860905     -4.55455927
H       1.97911901      2.30094107     -4.05435950
H       2.51148674      0.71652555     -2.22756402
H       1.28164552     -1.48765483      1.65755558
H       2.82687427     -2.55792040     -0.01066145
H       3.57799816     -2.53589239      1.59719015
H       4.06667507     -1.36643017      0.34746346
H       3.01378890     -0.61194671      3.22692090
H       1.91263628      0.67418937      2.68442440
H       3.52668117      0.56813278      1.99685407
