43
CN1[C@H]2CC(OC(=O)[C@H](CO)c3ccccc3)C[C@@H]1C1OC12
C       4.83382516     -0.63859050     -2.01870445
N       3.61631775     -0.32205676     -1.27729811
C       3.85942693      0.47438623     -0.05251604
C       2.51261856      1.18459782      0.18602582
C       1.34940677      0.17536318      0.35118903
O       0.10745705      0.87982945      0.15214728
C      -0.98787285      0.35100660      0.77167196
O      -0.97701906     -0.65739509      1.47012433
C      -2.20910263      1.21416252      0.51593715
C      -2.67958242      1.77074138      1.86707149
O      -3.59784548      2.84697419      1.68850431
C      -3.30965991      0.46740957     -0.22766968
C      -3.71961176      0.90789406     -1.49576203
C      -4.74525551      0.25208129     -2.18044003
C      -5.37386625     -0.85088487     -1.60921037
C      -4.97370022     -1.30320322     -0.35552813
C      -3.94658975     -0.65301762      0.32933133
C       1.44846593     -1.03612349     -0.60691759
C       2.90401145     -1.51906951     -0.77035939
C       3.50827934     -1.80655496      0.58552787
O       4.92684454     -1.67782854      0.74821237
C       4.11601875     -0.53413790      1.04397923
H       4.58246082     -1.23499724     -2.90437021
H       5.58929778     -1.18886392     -1.45282553
H       5.29987094      0.28645814     -2.38037092
H       4.67119232      1.20269845     -0.15777576
H       2.56593334      1.81084700      1.08776730
H       2.29571018      1.87233854     -0.64534036
H       1.38761694     -0.18623184      1.38850667
H      -1.90137995      2.07055267     -0.09951302
H      -1.82803747      2.16987809      2.43091266
H      -3.15607519      1.01361008      2.49773227
H      -4.37757962      2.48808641      1.22331995
H      -3.24647743      1.76904785     -1.96274024
H      -5.05413700      0.60175897     -3.16150498
H      -6.17132631     -1.36024272     -2.14523954
H      -5.45683577     -2.16571112      0.09031712
H      -3.64486819     -1.03869694      1.30398187
H       1.02373274     -0.77280309     -1.58597015
H       0.82446124     -1.85109417     -0.21750722
H       2.95653131     -2.37546103     -1.45116669
H       2.94884418     -2.44440537      1.25107635
H       4.02849874     -0.19235260      2.06261051
