22
Clc1ccccc1-c1ccccc1
Cl      0.27780461     -2.75223462     -0.87578061
C       1.25805907     -1.44299397     -0.30816884
C       2.62523186     -1.69119131     -0.13693752
C       3.47372635     -0.67714611      0.30514015
C       2.95858495      0.58702943      0.57589374
C       1.59456249      0.83676693      0.40546722
C       0.71782110     -0.17164992     -0.03766644
C      -0.70857168      0.14539009     -0.19642462
C      -1.15788020      0.89219573     -1.29679818
C      -2.51137282      1.20447725     -1.44381137
C      -3.43318802      0.77633194     -0.49091105
C      -3.00357051      0.03647335      0.60867652
C      -1.65008429     -0.27568172      0.75562801
H       3.03412109     -2.67578670     -0.34987003
H       4.53477350     -0.87379501      0.43677316
H       3.61612516      1.38122299      0.92128833
H       1.20846988      1.83088784      0.62648612
H      -0.45106573      1.22949297     -2.05210638
H      -2.84507984      1.77898313     -2.30386508
H      -4.48674930      1.01683403     -0.60649598
H      -3.72122096     -0.30064583      1.35194476
H      -1.33049670     -0.85496051      1.61948393
