30
O=C(NC(=O)c1c(F)cccc1F)Nc1cc(Cl)c(F)c(Cl)c1F
O       1.03696805     -2.34797502     -0.44916178
C       0.64363446     -1.19618877     -0.28681654
N      -0.71657468     -0.96880610     -0.26031474
C      -1.39947912      0.22790639     -0.09281270
O      -0.80634247      1.29190018      0.06129493
C      -2.88783919      0.17609349     -0.10662016
C      -3.62822122      1.35073233      0.05747995
F      -3.03030788      2.53772442      0.22911909
C      -5.02546122      1.33520690      0.04923270
C      -5.71086067      0.13543890     -0.12460136
C      -4.99151018     -1.04480765     -0.28959170
C      -3.59562079     -1.01631477     -0.27950605
F      -2.94970755     -2.18120150     -0.44262753
N       1.43152212     -0.08875740     -0.12567677
C       2.83918276     -0.00816312     -0.10810343
C       3.68782415     -1.10751467     -0.26100841
C       5.07498589     -0.92925411     -0.22961434
Cl      6.10358228     -2.29870855     -0.42020912
C       5.62157237      0.34020519     -0.04644134
F       6.95490685      0.49802766     -0.01818763
C       4.78792802      1.44223580      0.10690964
Cl      5.45533960      3.01433217      0.33371105
C       3.40609297      1.26252812      0.07533328
F       2.59010736      2.31998233      0.22241365
H      -1.24025469     -1.82634593     -0.38471765
H      -5.56771459      2.26838635      0.17979349
H      -6.79849813      0.12202410     -0.13120785
H      -5.50832702     -1.99118561     -0.42661272
H       0.92545153      0.79305604     -0.00227112
H       3.29762099     -2.11055721     -0.40555912
