21
O.O.O.O.O.O=S(=O)([O-])[O-].[Cu+2]
O       0.00226902      0.39780857      0.00000000
O       0.00728547      0.39774835      0.00000000
O       0.01384013      0.39757423      0.00000000
O      -0.00096248      0.39781387      0.00000000
O      -0.00103507      0.39781366      0.00000000
O      -0.12305809      1.04018621     -1.03742077
S       0.00000001     -0.00000001      0.00000000
O       0.02721790      0.63391906      1.33070596
O       1.24736850     -0.75744410     -0.20909955
O      -1.15152832     -0.91666116     -0.08418564
Cu      0.00000000      0.00000000      0.00000000
H       0.76232094     -0.20325891      0.00000000
H      -0.76458996     -0.19454966      0.00000000
H       0.75969706     -0.21285613      0.00000000
H      -0.76698254     -0.18489222      0.00000000
H       0.75608562     -0.22534846      0.00000000
H      -0.76992574     -0.17222577      0.00000000
H      -0.76298438     -0.20075407      0.00000000
H       0.76394686     -0.19705980      0.00000000
H       0.76398284     -0.19692039      0.00000000
H      -0.76294778     -0.20089327      0.00000000
