24
CN(C)C(=O)Nc1ccc(Cl)cc1
C       3.41951539      1.34292912     -0.42549431
N       2.42597193      0.29644897     -0.24786142
C       2.92152507     -0.93132998      0.36149298
C       1.08962877      0.70616999     -0.18119505
O       0.77893931      1.89418684     -0.20213067
N       0.19073557     -0.33645845     -0.12949291
C      -1.19725784     -0.25740171      0.10041456
C      -1.83633662      0.88257514      0.59502680
C      -3.21839714      0.88265111      0.81524501
C      -3.96435953     -0.26151198      0.54803075
Cl     -5.66257484     -0.26220016      0.82048187
C      -3.33980163     -1.40813855      0.06542182
C      -1.95874816     -1.40601506     -0.15415760
H       4.31273885      0.92007324     -0.89446703
H       3.67546477      1.75949118      0.55346868
H       3.03560622      2.14331589     -1.06509878
H       3.31600547     -0.68957271      1.35364928
H       3.72455602     -1.33582387     -0.26143006
H       2.15122963     -1.69386102      0.48380859
H       0.52600146     -1.19681979     -0.53295343
H      -1.28236668      1.78799479      0.82633702
H      -3.69887075      1.77979006      1.19639940
H      -3.91835355     -2.30431009     -0.14129156
H      -1.49085171     -2.31218293     -0.52982843
