19
C=CC(O)CCC
C       3.14874508      0.12660733      0.54865615
C       2.08017115      0.54601634     -0.14193230
C       0.86304632     -0.28738074     -0.41744302
O       0.73599575     -0.39425789     -1.83029192
C      -0.40016325      0.35906664      0.16007355
C      -1.64296547     -0.50756712     -0.06606971
C      -2.88325534      0.13063129      0.53991325
H       3.20332646     -0.87263529      0.96965106
H       3.99716468      0.78514827      0.70990213
H       2.07485896      1.55791701     -0.54300152
H       0.97996401     -1.29991889     -0.01362610
H       1.58741956     -0.72705638     -2.16214447
H      -0.26936325      0.53312944      1.23558107
H      -0.56760213      1.33585919     -0.31273698
H      -1.49263979     -1.49626233      0.38283431
H      -1.80875539     -0.65934636     -1.13867789
H      -3.75823307     -0.50417071      0.36854758
H      -3.08015782      1.10924404      0.09062823
H      -2.76755645      0.26497617      1.62013658
