37
O=C([O-])CN(CCO)CCN(CC(=O)[O-])CC(=O)[O-].[Na+].[Na+].[Na+]
O      -4.35676532     -2.68364643     -1.16763129
C      -3.76671362     -1.56374771     -1.04100131
O      -4.29628318     -0.41164041     -1.01026217
C      -2.21334694     -1.66456005     -0.89867193
N      -1.54684889     -0.47810418     -0.26498025
C      -1.68077476     -0.48744272      1.21432322
C      -3.09791984     -0.45175535      1.81234612
O      -3.84913086      0.67154642      1.35558482
C      -0.08409327     -0.52597571     -0.60989992
C       0.70917510      0.77021365     -0.28216467
N       2.13506315      0.71616013     -0.71468521
C       2.52093436      2.08120075     -1.22663482
C       3.97695354      2.20957430     -1.78335029
O       4.14056780      1.93328033     -3.01254231
O       4.82774760      2.71635264     -0.98361847
C       3.04090169      0.35578495      0.43551017
C       2.65563845     -0.94801829      1.20968347
O       1.93681549     -0.77689783      2.24674978
O       3.15536015     -2.03560992      0.78854243
Na      0.00000000      0.00000000      0.00000000
Na      0.00000000      0.00000000      0.00000000
Na      0.00000000      0.00000000      0.00000000
H      -1.86289268     -1.76886321     -1.93387964
H      -1.94471107     -2.58564763     -0.36664238
H      -1.15671349     -1.35420686      1.63744313
H      -1.18786395      0.41059247      1.60122427
H      -3.65706545     -1.36915922      1.60657111
H      -3.02252692     -0.36598915      2.90169675
H      -3.95940362      0.48977679      0.38083502
H       0.00637311     -0.66982250     -1.69516912
H       0.38045704     -1.40091133     -0.14136405
H       0.64314213      1.04639324      0.77509047
H       0.18887119      1.57391726     -0.82195402
H       1.85480304      2.34451273     -2.05890077
H       2.37413515      2.83672234     -0.44335749
H       4.05772003      0.20718403      0.05338730
H       3.07839486      1.17878646      1.16141807
