17
Cc1c(Cl)cccc1[N+](=O)[O-]
C       2.08887207      0.46208787     -0.17729833
C       0.58904351      0.37305774     -0.07544642
C      -0.21086991      1.52855793     -0.03373080
Cl      0.47301904      3.11698392     -0.07625332
C      -1.60837548      1.44303624      0.05417841
C      -2.24349839      0.20380529      0.11644316
C      -1.48038891     -0.95805942      0.10814337
C      -0.08165214     -0.86352288      0.02702933
N       0.65976087     -2.11669137      0.07266845
O       1.51673482     -2.23822984      0.95773962
O       0.36075507     -2.97758789     -0.76551609
H       2.52876512      0.54232328      0.82146898
H       2.51290817     -0.40927711     -0.68630837
H       2.40547001      1.32203348     -0.77533507
H      -2.21020032      2.34988484      0.07709892
H      -3.32775499      0.14860542      0.18233928
H      -1.97258856     -1.92700749      0.17277889
