16
O=C1OCc2ccccc21
O      -1.69677479      2.69274200     -0.22039690
C      -1.52811053      1.49350128     -0.13177933
O      -2.49973328      0.53269005     -0.07876574
C      -1.94388030     -0.79629289      0.02543838
C      -0.48788418     -0.55810754      0.03204110
C       0.56585980     -1.45163924      0.11314880
C       1.86832103     -0.94015326      0.09768139
C       2.09769117      0.44374154      0.00230588
C       1.02535321      1.33288114     -0.07878737
C      -0.25063561      0.79764674     -0.06119062
H      -2.29464485     -1.25186037      0.95546701
H      -2.26545094     -1.38051354     -0.84105424
H       0.39571547     -2.52156981      0.18700297
H       2.71600391     -1.61997989      0.16013573
H       3.11747134      0.82242029     -0.00824482
H       1.18069856      2.40449353     -0.15300224
