45
NS(=O)(=O)c1ccc(Nc2ccnc(NS(=O)(=O)Cc3ccccc3)n2)cc1
N       8.41801277      1.49298601      0.52954403
S       8.09143448     -0.14073267      0.73504853
O       8.19804150     -0.39073172      2.15344257
O       8.90065661     -0.83530070     -0.23849108
C       6.39269598     -0.23657211      0.25314548
C       5.39013066     -0.13825606      1.21861013
C       4.04800082     -0.24126077      0.83599206
C       3.69344089     -0.45546497     -0.50203629
N       2.36388042     -0.54090588     -0.95199920
C       1.14835914     -0.19993827     -0.35116522
C       1.01547583      0.89454341      0.48135527
C      -0.23687838      1.12731760      1.00119258
N      -1.30279221      0.36109440      0.72556468
C      -1.07793189     -0.61678516     -0.15143446
N      -2.09943478     -1.53498951     -0.39102431
S      -3.56147480     -0.87662344     -0.86703210
O      -4.26195002     -1.99007355     -1.48096374
O      -3.31326076      0.33431401     -1.62152892
C      -4.35380272     -0.50418749      0.70883133
C      -5.75783268     -0.01777632      0.45332945
C      -6.83465630     -0.91590970      0.44694285
C      -8.13264986     -0.46241366      0.20741775
C      -8.36755404      0.89030605     -0.03001203
C      -7.30465126      1.79108725     -0.03202741
C      -6.00572407      1.34064211      0.20727576
N       0.09730315     -0.97240650     -0.67486640
C       4.72129474     -0.56343242     -1.45335623
C       6.06538472     -0.46070558     -1.08378823
H       8.66306247      1.91168659      1.42727562
H       9.13317234      1.61452800     -0.18828826
H       5.64028642      0.00936193      2.26702928
H       3.29023047     -0.19096060      1.61273367
H       2.21250927     -1.32599605     -1.57975109
H       1.84119181      1.55658946      0.70322182
H      -0.41999028      1.96294000      1.67055925
H      -1.79312941     -2.24346433     -1.05179671
H      -4.35861274     -1.41918854      1.30938260
H      -3.77933523      0.26307352      1.23175360
H      -6.67006884     -1.97835387      0.61639380
H      -8.96029704     -1.16698042      0.19837190
H      -9.37803698      1.24116342     -0.22195089
H      -7.48593950      2.84476161     -0.22775607
H      -5.18617171      2.05710081      0.18864602
H       4.47619638     -0.72047403     -2.50218759
H       6.84141465     -0.55361186     -1.84021958
