21
CCc1ccc(C(=O)O)cc1
C      -3.15854457      0.61380202      0.19451346
C      -2.33395399     -0.63028762      0.48720599
C      -0.87370414     -0.42132687      0.17445030
C      -0.37543724     -0.69923604     -1.10523976
C       0.97417959     -0.49048870     -1.39994708
C       1.84098910      0.00358659     -0.41856908
C       3.26477084      0.20958883     -0.77743933
O       3.76677915     -0.01303950     -1.86379017
O       3.99870214      0.68674951      0.24381124
C       1.34746310      0.28918015      0.85928622
C      -0.00312198      0.07953226      1.15181299
H      -3.09066588      0.89611699     -0.86159430
H      -4.21211421      0.43355464      0.43031990
H      -2.81797710      1.46599243      0.79239100
H      -2.71870230     -1.47586440     -0.09590379
H      -2.44875786     -0.91183653      1.54105415
H      -1.03587872     -1.07970696     -1.88175111
H       1.34577012     -0.71338885     -2.39822758
H       4.89847965      0.76976218     -0.13562231
H       2.00396335      0.67653934      1.63445055
H      -0.37223904      0.31077051      2.14895108
