30
C=CCC1(c2ccccc2)C(=O)NC(=O)NC1=O
C      -3.53763847     -1.58202009      0.56845360
C      -2.73452541     -1.09200709     -0.38388586
C      -1.22884626     -1.23054559     -0.37801902
C      -0.44041740      0.06954614     -0.05260297
C       1.07284386     -0.26319936     -0.19491968
C       1.72649363     -0.15845212     -1.43883357
C       3.08136346     -0.47359286     -1.57358820
C       3.80903006     -0.91695409     -0.47475569
C       3.17929571     -1.05829137      0.75700597
C       1.82438439     -0.74390635      0.89495764
C      -0.83110124      1.18700753     -1.03077263
O      -1.24297891      0.99559981     -2.17503284
N      -0.64353251      2.46944588     -0.59215868
C      -0.74503601      2.84007053      0.70927630
O      -1.02004612      3.99278439      1.02573974
N      -0.62463050      1.85981689      1.64034183
C      -0.75828034      0.52197895      1.38081594
O      -1.05440055     -0.23951425      2.30191661
H      -3.14188132     -2.10001504      1.43807578
H      -4.61570151     -1.47153687      0.50089189
H      -3.18303745     -0.59220790     -1.24196785
H      -0.94233469     -2.02475292      0.32616663
H      -0.94100475     -1.60708996     -1.36974014
H       1.19384749      0.15641935     -2.33513670
H       3.56523426     -0.38108513     -2.54306169
H       4.86152218     -1.16604551     -0.58143671
H       3.74009343     -1.42417332      1.61390505
H       1.37231413     -0.90013775      1.87322217
H      -0.90034532      3.19151735     -1.25191997
H      -0.84068387      2.14134074      2.58706302
