28
CC(C)C1CCC(O)CC1
C      -2.45668260      0.18423116     -0.92960231
C      -1.89990724      0.12441172      0.49542027
C      -2.50846247     -1.07487315      1.23097729
C      -0.34810033      0.11694646      0.57767018
C       0.25348953      1.45341598      0.10077481
C       1.77161726      1.47430503      0.25915834
C       2.42760357      0.30241443     -0.46488406
O       3.82438438      0.32340988     -0.19197247
C       1.83583077     -1.03038288     -0.01309582
C       0.31597287     -1.05704021     -0.16545003
H      -2.19519194     -0.70809578     -1.50667614
H      -3.55034975      0.25054198     -0.90824217
H      -2.09211053      1.06256206     -1.46922017
H      -2.24947659      1.02481849      1.01889993
H      -2.29236457     -2.01881125      0.72099881
H      -3.59779611     -0.97474273      1.29148942
H      -2.12560309     -1.14172067      2.25462831
H      -0.08829650      0.01648624      1.64189801
H      -0.17797046      2.28305208      0.67309965
H       0.00991121      1.62973115     -0.95317759
H       2.03693548      1.44964740      1.32419980
H       2.17599616      2.41901469     -0.12414308
H       2.29646421      0.42173148     -1.54701289
H       4.22607371     -0.42671344     -0.66266239
H       2.28321713     -1.84878985     -0.59011859
H       2.10965303     -1.22208120      1.03263543
H       0.07034295     -1.01993129     -1.23315400
H      -0.05518008     -2.01353777      0.21729422
