21
CC(=O)C(=O)Nc1ccccc1
C      -4.13120990      0.25392118     -0.15936754
C      -2.88243396     -0.25591321      0.49397213
O      -2.86752106     -0.99499806      1.47412526
C      -1.55385026      0.18944043     -0.12125573
O      -1.56775590      0.92399790     -1.09541808
N      -0.47686444     -0.33813035      0.55876762
C       0.88985570     -0.15449042      0.29001501
C       1.37619280      0.62885057     -0.75806580
C       2.75371302      0.76222233     -0.96033191
C       3.65353800      0.11420571     -0.11726861
C       3.17736590     -0.66905389      0.93051482
C       1.80139053     -0.80256690      1.13294233
H      -4.15332664      1.34560597     -0.11579399
H      -5.00408708     -0.13498089      0.37260069
H      -4.17321616     -0.08793865     -1.19644500
H      -0.72677097     -0.93007522      1.34860330
H       0.71051243      1.15083296     -1.43824924
H       3.12078588      1.37500446     -1.77996415
H       4.72325568      0.22030194     -0.27768967
H       3.87577827     -1.17653926      1.59086200
H       1.45464817     -1.41969658      1.95797031
