20
C[c-]1cccc1.[C-]#[O+].[C-]#[O+].[C-]#[O+].[Mn]
C       1.91854598     -0.07294809      0.10766996
C       0.44323330      0.03288626      0.03745215
C      -0.37039421     -1.05951384     -0.24391520
C      -1.66807860     -0.59884946     -0.22817390
C      -1.67208045      0.75127357      0.05624867
C      -0.35795284      1.15050676      0.22285547
C       0.56725774      0.00000000      0.00000000
O      -0.56725774      0.00000000      0.00000000
C       0.56494400      0.00000000      0.00000000
O      -0.56494400      0.00000000      0.00000000
C       0.56005275      0.00000000      0.00000000
O      -0.56005275      0.00000000      0.00000000
Mn      0.00000000      0.00000000      0.00000000
H       2.41021216      0.87278628      0.32387666
H       2.15950608     -0.87460374      0.85755758
H       2.25997957     -0.45814872     -0.87720137
H      -0.04160342     -2.07261123     -0.43691967
H      -2.52776282     -1.21676665     -0.41238249
H      -2.53750975      1.39655106      0.13802275
H      -0.01609501      2.14943778      0.45490940
