36
CC1=C2C3OC(=O)C(C)C3CCC2(C)C=CC1=O
C      -1.37380099      2.56907608      1.84987992
C      -1.68132298      1.21810337      1.26081258
C      -0.86436119      0.49039702      0.45765838
C       0.57035767      0.90927827      0.19275603
O       0.71887965      1.45441047     -1.11793459
C       2.01858801      1.27956400     -1.51438528
O       2.48153911      1.72328736     -2.55140457
C       2.77015526      0.48470377     -0.46965344
C       3.82608088     -0.43160578     -1.06090989
C       1.61780912     -0.19756586      0.26811182
C       1.16036262     -1.51341140     -0.37367373
C      -0.23205720     -1.91585927      0.10174345
C      -1.29995465     -0.83505014     -0.18115087
C      -1.52761845     -0.65574533     -1.69782289
C      -2.61383109     -1.34592163      0.37556792
C      -3.41008285     -0.65067905      1.19222015
C      -3.03501983      0.70073547      1.64063086
O      -3.81125605      1.34440045      2.33840414
H      -0.58861442      3.10205847      1.30745188
H      -1.06851717      2.46525826      2.89583100
H      -2.25007818      3.22567332      1.80905664
H       0.87453062      1.69258109      0.89703529
H       3.25367100      1.20998390      0.19775639
H       4.24128344     -1.09472186     -0.29556630
H       3.43528445     -1.04261870     -1.88087080
H       4.64970316      0.15983474     -1.47624986
H       1.88488309     -0.39959597      1.31299709
H       1.16368937     -1.44560126     -1.46724277
H       1.86988813     -2.30951593     -0.11677974
H      -0.50655266     -2.86115995     -0.38556464
H      -0.18682087     -2.12837460      1.17952964
H      -0.62725022     -0.34297404     -2.23289415
H      -1.86049668     -1.59221580     -2.16277791
H      -2.29751218      0.10043152     -1.89729073
H      -2.94282583     -2.33355003      0.05637471
H      -4.35873209     -1.03361096      1.54835429
