42
CC1CCC(C(C)C)C(OCC(O)CO)C1
C      -2.16374392      2.87529410     -0.12911920
C      -1.92701557      1.94414866      1.06286238
C      -2.87455817      0.74020978      1.04097731
C      -2.51675025     -0.28794311     -0.03279414
C      -1.05454078     -0.75505240      0.08479272
C      -0.66434746     -1.85198354     -0.95373850
C      -1.49244846     -3.12946948     -0.77177639
C      -0.74755699     -1.39286880     -2.41197921
C      -0.09516873      0.46142313      0.05244939
O       1.23607314     -0.01697243      0.28998007
C       2.25147448      0.83741163     -0.25149351
C       3.61534444      0.21500946      0.05210240
O       3.66644667     -1.11555873     -0.49507607
C       3.88853003      0.11284939      1.55501318
O       5.19311425     -0.43341755      1.76049895
C      -0.46848897      1.48014996      1.13984896
H      -1.97771801      2.38352916     -1.08820904
H      -1.50750868      3.75017383     -0.06935495
H      -3.19768496      3.23665415     -0.13438993
H      -2.14342678      2.52611499      1.96832194
H      -3.90907176      1.07452040      0.89806982
H      -2.84139178      0.24746315      2.02149616
H      -2.70308064      0.14268486     -1.02251281
H      -3.19855796     -1.13846399      0.07369345
H      -0.93704293     -1.22656000      1.07248085
H       0.37932774     -2.13474239     -0.76373741
H      -1.46841095     -3.46691003      0.26953834
H      -1.08816689     -3.93811951     -1.39076556
H      -2.53713086     -2.98486136     -1.06411943
H      -0.42575529     -2.19682436     -3.08356834
H      -0.09480233     -0.53659795     -2.60280667
H      -1.76822066     -1.11875434     -2.69534848
H      -0.14335682      0.94017997     -0.93222600
H       2.11148844      0.89379786     -1.33693944
H       2.18476502      1.84105451      0.17885520
H       4.41260899      0.78819526     -0.43275409
H       2.79638070     -1.51145183     -0.28356210
H       3.84855083      1.09418921      2.03637934
H       3.17799930     -0.55707815      2.04958794
H       5.26829096     -1.16902261      1.12024134
H       0.19939838      2.34821217      1.09440549
H      -0.28384679      1.02938694      2.12467606
