28
CCN(c1c([N+](=O)[O-])cc([N+](=O)[O-])cc1[N+](=O)[O-])[N+](=O)[O-]
C      -3.36546152     -0.26857002      1.12852277
C      -2.25891205     -0.78070133      0.21394853
N      -1.38805549      0.31813061     -0.22044902
C       0.01423289      0.14707480     -0.14018447
C       0.81328149      1.07671151      0.57530939
N       0.19144714      2.17676966      1.30435270
O      -0.71469642      1.88745492      2.09517081
O       0.65367994      3.30774956      1.11472062
C       2.21583775      0.98446604      0.66362104
C       2.86700943     -0.07568612      0.03008409
N       4.32891871     -0.19358239      0.11801290
O       4.91972976      0.58927808      0.87164551
O       4.87035779     -1.07371756     -0.56221707
C       2.13508091     -1.03051293     -0.67985607
C       0.73480686     -0.90249115     -0.75775600
N       0.05152371     -1.91974826     -1.53437457
O       0.13178263     -3.07978824     -1.11535404
O      -0.56491051     -1.54642973     -2.53638695
N      -1.79858917      1.05658016     -1.33745331
O      -0.95928793      1.80903522     -1.84404047
O      -2.96773051      0.91791168     -1.70019388
H      -3.99170172     -1.10167037      1.46331534
H      -4.01172704      0.45735502      0.62675145
H      -2.94658547      0.21590735      2.01614717
H      -1.68428726     -1.51473734      0.79403571
H      -2.68867626     -1.32583863     -0.63553916
H       2.77785897      1.73231577      1.22486851
H       2.63507338     -1.86326631     -1.17670154
