17
CCOC(=O)CC
C       3.04557245      0.24647290     -0.19767154
C       1.76012429      0.29741925      0.60486290
O       0.66993172      0.00450628     -0.27735929
C      -0.55407318      0.01797736      0.32388677
O      -0.75324231      0.25354049      1.50681640
C      -1.61701505     -0.30268781     -0.69935647
C      -3.00960361     -0.30422496     -0.09371937
H       3.90993406      0.46450359      0.43574756
H       3.01663228      0.97089627     -1.01832852
H       3.17872572     -0.74186006     -0.64996875
H       1.79595576     -0.44692339      1.40821554
H       1.63083994      1.29776948      1.03298706
H      -1.56878247      0.44717712     -1.49596611
H      -1.40436408     -1.29015728     -1.12231549
H      -3.75730566     -0.53923407     -0.85741653
H      -3.09015282     -1.04889392      0.70515705
H      -3.25317702      0.67371874      0.33467503
