12
CC(O)C(Cl)(Cl)Cl
C       1.05685701     -0.99799529      0.08082780
C       0.29833860      0.29822099     -0.20055249
O       0.83139779      1.28959154      0.70091613
C      -1.25255985      0.17054691     -0.11563964
Cl     -1.80272899     -0.37583266      1.49849234
Cl     -1.98325821      1.79021160     -0.42716693
Cl     -1.88053386     -0.96003699     -1.35672420
H       0.76354890     -1.80479463     -0.59593285
H       2.13409768     -0.83316522     -0.03736503
H       0.91380986     -1.33190281      1.11363740
H       0.57246878      0.63113789     -1.21003818
H       0.34856230      2.12401867      0.54954566
