11
CN(C)N=O
C       1.15491314     -0.27344814     -0.02125549
N      -0.09920849      0.41747601      0.30544903
C      -1.22973876     -0.49086798      0.10230663
N      -0.26636223      1.55948339     -0.32536441
O       0.56546167      2.39723169      0.04051439
H       1.25512888     -1.18834282      0.57470009
H       1.21080667     -0.54844335     -1.08189751
H       2.03003276      0.34247343      0.21962641
H      -1.33132937     -0.80311678     -0.94475638
H      -1.11761318     -1.39076254      0.71847086
H      -2.17209109     -0.02168291      0.41220639
