37
CCN(CC)C(=O)/C(Cl)=C(/C)OP(=O)(OC)OC
C       1.64797969      2.63019777     -0.11139380
C       2.51731496      1.59274646      0.58339040
N       1.96927578      0.24542290      0.43576114
C       2.41719200     -0.53767121     -0.72024539
C       3.74950035     -1.22415090     -0.46128054
C       1.02884713     -0.17646078      1.37284230
O       0.66437535      0.51541183      2.32436125
C       0.41757289     -1.52240400      1.18498799
Cl      1.21827244     -2.82354111      1.97488531
C      -0.72908698     -1.62707491      0.49030783
C      -1.48105424     -2.90663991      0.26099180
O      -1.27644803     -0.48099485     -0.08057714
P      -2.76567155     -0.27795895     -0.66755542
O      -3.13471740     -1.20186502     -1.78712069
O      -2.79349718      1.28524964     -1.06532852
C      -2.06483548      1.65544192     -2.21718581
O      -3.72252291     -0.35926496      0.62680120
C      -3.49498617      0.54280227      1.69098308
H       1.57151263      2.42602789     -1.18423917
H       0.63276706      2.63457477      0.29892632
H       2.07349508      3.63010736      0.01693972
H       2.59188589      1.84099184      1.64816302
H       3.53371809      1.61524515      0.17657062
H       2.50100925      0.13562942     -1.58068686
H       1.67325539     -1.29256774     -0.98621621
H       4.04682414     -1.81482108     -1.33327659
H       4.54060126     -0.49466146     -0.26143974
H       3.69170861     -1.89347325      0.40191069
H      -1.54403537     -3.11854208     -0.81078774
H      -2.49467671     -2.83432054      0.66653026
H      -1.01182634     -3.77535282      0.73004545
H      -2.50171181      1.18900223     -3.10411777
H      -2.11294926      2.74147667     -2.32903741
H      -1.01752192      1.35725763     -2.11736980
H      -4.16053062      0.28025509      2.51731042
H      -3.71881682      1.56462283      1.37416949
H      -2.46221920      0.47930190      2.04198031
