32
CC(C)(C)c1ncc2c(N)c(C#N)c(N)nc2n1
C      -3.17527448     -1.15573381     -0.83299811
C      -2.82048877      0.03490720      0.07878960
C      -3.18686318      1.34801053     -0.63128979
C      -3.65391104     -0.09132234      1.36929899
C      -1.32428056      0.05259611      0.38493982
N      -0.92140787      0.49830469      1.58319032
C       0.40602617      0.53695111      1.79071198
C       1.35947545      0.15256781      0.85514047
C       2.76854406      0.15680653      1.05065215
N       3.32751244      0.65721825      2.25089962
C       3.57651290     -0.14968943     -0.05506739
C       5.00369557     -0.09222469      0.02768219
N       6.15871036     -0.02681380      0.12990358
C       2.95988368     -0.53833216     -1.24003374
N       3.67254766     -0.93640210     -2.37041178
N       1.62444687     -0.61042410     -1.37424893
C       0.82972497     -0.25860539     -0.36607845
N      -0.47692587     -0.30679801     -0.59282091
H      -4.25315984     -1.19667437     -1.02811906
H      -2.88198747     -2.10744576     -0.37433045
H      -2.67307235     -1.08907130     -1.80518963
H      -2.95647727      2.21811416     -0.00507209
H      -2.63159083      1.46507884     -1.56948643
H      -4.25560292      1.38360448     -0.87127544
H      -4.72581036     -0.13780432      1.14453413
H      -3.39010202     -0.99864230      1.92547865
H      -3.50021704      0.76377092      2.03797910
H       0.68445327      0.90996060      2.77134600
H       2.78356651      0.48817711      3.09239281
H       4.30912107      0.42971035      2.41038361
H       4.36569338     -0.26079051     -2.67600094
H       2.99725751     -1.13900432     -3.10644371
