27
CNC(C)C(O)c1ccccc1
C      -3.76291194     -0.43230772     -0.02331943
N      -2.57194163     -0.64888368      0.78730243
C      -1.31819735     -0.40204549      0.03128958
C      -0.97391426     -1.61906908     -0.83097270
C      -0.17322526     -0.07957436      1.04418576
O      -0.60327644      0.99442523      1.90280100
C       1.13847072      0.32031014      0.39859779
C       1.25234550      1.51652547     -0.32752748
C       2.46397248      1.87647870     -0.91898518
C       3.57569336      1.04665920     -0.79141491
C       3.47760936     -0.14250992     -0.07180744
C       2.26661561     -0.50430975      0.52112206
H      -3.82392903     -1.13993472     -0.85487669
H      -3.80287247      0.58866468     -0.41662518
H      -4.65233083     -0.58454768      0.59630663
H      -2.57763851      0.02736442      1.55994754
H      -1.46302581      0.47559417     -0.61208652
H      -0.81151260     -2.51008063     -0.21423083
H      -0.06531915     -1.44482625     -1.41623555
H      -1.77086956     -1.84553768     -1.54633391
H      -0.01400210     -0.94526307      1.69976394
H       0.20210144      1.37173337      2.29790441
H       0.39359309      2.17754141     -0.43120933
H       2.54016562      2.80504569     -1.47895686
H       4.51909858      1.32680796     -1.25284976
H       4.34531709     -0.78993704      0.02701000
H       2.20998409     -1.43832337      1.07667651
