18
Cc1ccc([N+](=O)[O-])c(O)c1
C       2.86200795      0.02073771     -0.17750079
C       1.36516956     -0.06844982     -0.10934133
C       0.73175341     -1.31463562     -0.03150583
C      -0.65985520     -1.39638093      0.06324257
C      -1.42810398     -0.22203189      0.09148216
N      -2.88461469     -0.33411070      0.19136221
O      -3.38196412     -1.46757244      0.24393872
O      -3.53955351      0.72103769      0.21757770
C      -0.80143476      1.02910657      0.02916071
O      -1.44318717      2.23795119      0.05563387
C       0.58992979      1.09880418     -0.06568638
H       3.28220440     -0.85024745     -0.69131808
H       3.27980415      0.07148108      0.83262416
H       3.17498021      0.90912902     -0.73606973
H       1.31989605     -2.23083176     -0.04535797
H      -1.12471490     -2.37909472      0.11653285
H      -2.41160360      2.09962317      0.12181094
H       1.06928641      2.07548472     -0.10658579
