36
CC(C)Cc1nnc(NS(=O)(=O)c2ccc(N)cc2)s1
C      -5.75866251     -0.71890860     -1.53641456
C      -4.54305771     -0.16847684     -0.78649106
C      -4.93958606      1.09846084     -0.02326175
C      -3.97112879     -1.25137438      0.14685233
C      -2.66291470     -0.86170921      0.75895578
N      -2.52256038     -0.34603928      1.96415338
N      -1.20111685     -0.07784073      2.26358714
C      -0.40880557     -0.37124196      1.26127887
N       1.03009349     -0.21744710      1.40581631
S       1.56542175      1.18769143      0.63092332
O       0.81428067      1.43560826     -0.57971197
O       1.71507361      2.19364638      1.66012675
C       3.19259796      0.67357081      0.13307226
C       3.33109793     -0.17539404     -0.96712920
C       4.60773570     -0.57930137     -1.36565259
C       5.74670001     -0.10407588     -0.70712740
N       7.00957421     -0.60869514     -1.03486390
C       5.58576547      0.70812965      0.42065483
C       4.31515636      1.12071976      0.83115652
S      -1.17803761     -1.09147398     -0.08116264
H      -5.48539822     -1.59987058     -2.12684050
H      -6.16344018      0.03027352     -2.22514103
H      -6.55600239     -1.00842171     -0.84338151
H      -3.78692751      0.10737479     -1.53275756
H      -5.67400976      0.87766357      0.75878936
H      -5.38099896      1.83676728     -0.70147610
H      -4.07067646      1.56807940      0.44830446
H      -4.68787122     -1.46794494      0.94951286
H      -3.84267874     -2.19007178     -0.40760636
H       1.20692030     -0.08380737      2.40359827
H       2.45811328     -0.53279120     -1.50825015
H       4.70748611     -1.26771596     -2.20124398
H       7.77977345     -0.01111781     -0.75046512
H       7.09598218     -0.91072233     -2.00048071
H       6.45483389      1.03138101      0.98866721
H       4.21726723      1.77507551      1.69416965
