33
CCC1(c2ccccc2)C(=O)NC(=O)N(CO)C1=O
C      -0.34931976     -3.11691471      0.86879150
C      -0.96070331     -1.71672242      0.92310524
C      -0.29150003     -0.66305154     -0.00813682
C      -1.05483612      0.67649123      0.19863053
C      -0.53372811      1.72671420      0.97671988
C      -1.24588914      2.91726938      1.15030836
C      -2.49678072      3.07942785      0.56380262
C      -3.04324718      2.04746243     -0.19085726
C      -2.33408646      0.85701897     -0.36710962
C      -0.41059096     -1.08797492     -1.47052224
O      -1.25708464     -1.86619482     -1.90551910
N       0.47571344     -0.49920361     -2.32505164
C       1.75277383     -0.17277579     -1.98499178
O       2.60475132     -0.12922804     -2.87064781
N       2.02693942     -0.01936273     -0.64396082
C       3.40302592      0.24351594     -0.28770360
O       3.44229358      1.13730634      0.81479862
C       1.19397892     -0.51366251      0.34998143
O       1.62565461     -0.74681919      1.48475352
H       0.69919496     -3.11963758      1.17798114
H      -0.41091876     -3.55090053     -0.13274904
H      -0.89266326     -3.78173614      1.54872567
H      -2.02718802     -1.81398430      0.67949278
H      -0.92062110     -1.37026097      1.96491555
H       0.43024220      1.64925552      1.47567549
H      -0.82197971      3.71794548      1.75212750
H      -3.04873729      4.00518015      0.70341761
H      -4.02672877      2.16447836     -0.63953538
H      -2.80647930      0.06655013     -0.94987823
H       0.37261601     -0.76858576     -3.29479051
H       3.89767408     -0.69416315     -0.01074502
H       3.95587404      0.70503360     -1.11078958
H       3.05235031      0.63752912      1.55976103
