22
Cc1ccc(OCC(=O)O)cc1
C      -3.89488442     -0.50553901     -0.62399820
C      -2.46215176     -0.23280443     -0.27470777
C      -1.43135067     -0.64837529     -1.12505454
C      -0.09147787     -0.42368181     -0.78745877
C       0.23207160      0.21100757      0.41151254
O       1.49208841      0.49100735      0.86213352
C       2.57639811      0.11053609      0.02512204
C       3.89607335      0.49872503      0.66543449
O       4.08414274      1.05566835      1.73405618
O       4.95250467      0.15100124     -0.10481443
C      -0.79482461      0.61288870      1.26788930
C      -2.13236553      0.38950085      0.93280967
H      -4.19502331     -1.48363871     -0.23573028
H      -4.55292118      0.26068409     -0.20077308
H      -4.04100513     -0.49509634     -1.70924195
H      -1.66478991     -1.15161390     -2.06099692
H       0.66882630     -0.76085056     -1.48353255
H       2.58433242     -0.97723970     -0.10815283
H       2.51172478      0.63409961     -0.93552089
H       5.72520496      0.45444128      0.41824559
H      -0.55075509      1.10298712      2.20758185
H      -2.91181785      0.70629247      1.62180511
