34
CC(C)(CO)COC(=O)C(C)(C)CO
C       2.33440454     -1.17797608     -1.00091663
C       2.17531373      0.18840847     -0.30713602
C       1.48618467      1.15667066     -1.28478339
C       3.56000789      0.76117301      0.05547805
O       4.24254086     -0.09169374      0.96589949
C       1.33850228      0.02015810      0.98220152
O       0.02353143     -0.48654952      0.68642695
C      -1.01874245      0.38091334      0.78993384
O      -0.91722264      1.54652034      1.15856145
C      -2.35435919     -0.28429056      0.45428075
C      -2.18882504     -1.63721726     -0.25790401
C      -3.09444174     -0.49871776      1.78305165
C      -3.15614601      0.68727063     -0.42999088
O      -2.60027944      0.76874358     -1.73934110
H       2.78773089     -1.91736545     -0.33165951
H       2.97291418     -1.09605897     -1.88784304
H       1.36758120     -1.57683488     -1.32769272
H       0.52441551      0.76576783     -1.63339666
H       1.30424976      2.12900876     -0.81374544
H       2.10710329      1.32828781     -2.17157815
H       3.46257807      1.74735963      0.52334579
H       4.18276462      0.86961642     -0.83978190
H       5.11692048      0.30385478      1.12685560
H       1.80424948     -0.71542343      1.64827265
H       1.29549443      0.96061115      1.54451669
H      -1.71035816     -2.37667897      0.39490630
H      -3.16081181     -2.04482069     -0.55784800
H      -1.56837180     -1.54980689     -1.15698543
H      -3.25737601      0.45010176      2.30744530
H      -2.51873951     -1.14536697      2.45549401
H      -4.07290360     -0.96477811      1.62238419
H      -4.19110375      0.34245811     -0.53631738
H      -3.18302237      1.69749245     -0.00623870
H      -3.09378380      1.45916246     -2.21589529
