16
Cc1[nH]cnc1S(=O)(=O)O
C      -1.16264693      1.49825998     -0.83227408
C      -0.73899605      0.35906274      0.01055029
N      -1.55173250     -0.24995289      0.93518736
C      -0.83877599     -1.25821389      1.52694948
N       0.38180951     -1.34298304      1.04724750
C       0.45455064     -0.33229629      0.09486700
S       1.91685328     -0.06458288     -0.81567423
O       1.57864472     -0.40046577     -2.17916732
O       2.39596445      1.22902493     -0.38748199
O       2.84408504     -1.23053976     -0.17824456
H      -1.09164868      1.23656137     -1.89267028
H      -2.19742757      1.78895607     -0.62461443
H      -0.52412491      2.36803611     -0.64857821
H      -2.50977876     -0.00290916      1.14753636
H      -1.26577689     -1.88964797      2.29601378
H       2.30900064     -1.70830957      0.50035333
