55
CC(Cc1ccc(C(C)(C)C)cc1)CN1C[C@H](C)O[C@H](C)C1
C       0.61416763      1.56020092     -0.95007505
C       0.79195686      0.04398161     -0.79750784
C      -0.27699486     -0.72862426     -1.60361696
C      -1.68119678     -0.57087780     -1.07245161
C      -2.62344288      0.19742343     -1.76049777
C      -3.92508974      0.34737272     -1.26597083
C      -4.32808676     -0.26612651     -0.06940492
C      -5.74883118     -0.12145514      0.50271296
C      -6.68336371      0.75693166     -0.35965299
C      -5.68100393      0.52376970      1.90382955
C      -6.40732162     -1.51342880      0.61588091
C      -3.36718310     -1.03841158      0.61035719
C      -2.06639980     -1.18952485      0.11888371
C       2.19536047     -0.40714412     -1.27193568
N       3.32010030      0.25970113     -0.59353457
C       4.59595311     -0.07987759     -1.26529731
C       5.80046321      0.57405881     -0.55568355
C       7.10965524      0.17020819     -1.22009368
O       5.86373144      0.15651972      0.81784334
C       4.65556112      0.52416321      1.50356085
C       4.79080843      0.06725190      2.94991304
C       3.42441444     -0.12502268      0.83187258
H       0.70937403      1.86592250     -1.99750360
H       1.36150534      2.10898905     -0.36805441
H      -0.36762148      1.88349493     -0.59034326
H       0.67526149     -0.20811155      0.26316311
H      -0.24070623     -0.42489727     -2.65818879
H      -0.04257988     -1.80173148     -1.59852421
H      -2.35371121      0.69407529     -2.69002690
H      -4.60904412      0.95952798     -1.84704649
H      -6.29964983      1.77916711     -0.45750570
H      -7.68179354      0.82950902      0.08820590
H      -6.81170834      0.34216840     -1.36626856
H      -5.12520462     -0.09349663      2.61811550
H      -6.68440465      0.67050281      2.32045144
H      -5.18993261      1.50332589      1.86361458
H      -7.43522573     -1.43530496      0.98901935
H      -5.86677147     -2.17320404      1.30336397
H      -6.44354131     -2.01309303     -0.35947379
H      -3.62011175     -1.53879570      1.54257774
H      -1.35749972     -1.79662822      0.67707898
H       2.26223573     -0.19468302     -2.34781636
H       2.28449380     -1.49666844     -1.16437887
H       4.72731992     -1.17050318     -1.27643617
H       4.56700495      0.26675232     -2.30536398
H       5.71298668      1.66791505     -0.58763259
H       7.95758545      0.63270128     -0.70338754
H       7.13326358      0.47439883     -2.27083406
H       7.26083194     -0.91344347     -1.16356655
H       4.56225639      1.61796360      1.48853628
H       3.90617387      0.33370822      3.53606804
H       5.66938493      0.52789639      3.41443080
H       4.93770950     -1.01695441      3.00692193
H       3.49781663     -1.21773261      0.91437579
H       2.53104437      0.19613965      1.37758147
