48
CCCCCCCCSC(=O)Oc1cc(Cl)nnc1-c1ccccc1
C      -6.36210418      1.88554477      0.69754740
C      -5.41809976      2.45333783     -0.35106025
C      -4.24275739      1.51044824     -0.61247275
C      -3.29129453      2.08726697     -1.66315945
C      -2.15942839      1.12905186     -2.04819050
C      -1.20126865      0.83164162     -0.89202624
C       0.04158275      0.04241671     -1.31988843
C      -0.28822853     -1.36370030     -1.82216350
S       1.22157952     -2.31763571     -2.16861449
C       1.74912226     -2.64527389     -0.51887155
O       0.96029723     -2.64483927      0.41798968
O       3.11159757     -2.91123086     -0.40493739
C       3.53856826     -2.99679896      0.92476566
C       3.76406437     -4.26630977      1.44630826
C       4.17633608     -4.33832467      2.75684760
Cl      4.47073233     -5.84087995      3.52214253
N       4.37558829     -3.24778353      3.52062487
N       4.16896086     -1.99574971      2.98506848
C       3.76425638     -1.85641008      1.70002277
C       3.59146799     -0.47337506      1.22920625
C       4.11523571     -0.03566309     -0.00116197
C       3.92569739      1.27738312     -0.44208049
C       3.21534228      2.18080746      0.34308178
C       2.69860959      1.77478544      1.57030945
C       2.88832186      0.46146908      2.00874334
H      -6.77291495      0.92365960      0.37410484
H      -5.84561288      1.73523933      1.65087420
H      -7.19736042      2.57264095      0.86791495
H      -5.04654604      3.42726974     -0.01243672
H      -5.97417489      2.62307904     -1.28052833
H      -3.70565991      1.33988107      0.32756477
H      -4.62014981      0.53860281     -0.95231246
H      -2.86619989      3.03107606     -1.30028429
H      -3.85999426      2.32600573     -2.57061455
H      -1.59651454      1.57911214     -2.87505941
H      -2.59360438      0.19753903     -2.42870797
H      -0.86875285      1.77854363     -0.44813392
H      -1.72085075      0.27551830     -0.10294747
H       0.70519700     -0.01472934     -0.44962831
H       0.57958304      0.60371645     -2.09429037
H      -0.91992324     -1.90494799     -1.11009361
H      -0.84446965     -1.30274661     -2.76287964
H       3.60620484     -5.15832614      0.85361097
H       4.69193890     -0.71263480     -0.62831106
H       4.33949933      1.59575442     -1.39579625
H       3.07144429      3.20358404      0.00395625
H       2.15006649      2.47822687      2.19159880
H       2.47461528      0.16375744      2.97188899
