22
O=[N+]([O-])O[C@@H]1CO[C@@H]2[C@@H](O)CO[C@H]12
O       2.75189516     -0.82135979     -1.72834915
N       3.15867073     -0.57897545     -0.59082398
O       4.17814618     -0.96004573     -0.02016218
O       2.38087874      0.29502876      0.20133045
C       1.18243691      0.71001614     -0.43438150
C       0.49898752      1.77986618      0.40125261
O      -0.89605971      1.74638107      0.06223837
C      -1.18037639      0.47607174     -0.56047385
C      -2.14683605     -0.34173606      0.27143284
O      -2.70731491     -1.39364773     -0.52093991
C      -1.23267538     -0.91163546      1.34597657
O       0.04021974     -1.14299614      0.70581587
C       0.09538288     -0.34841830     -0.50040921
H       1.37380822      1.13903159     -1.42802034
H       0.89885063      2.77802300      0.19717025
H       0.60499319      1.59789377      1.47686392
H      -1.51552425      0.65944076     -1.58596050
H      -2.96502184      0.24284989      0.70060804
H      -2.05650407     -2.11802134     -0.57308955
H      -1.07023497     -0.19856470      2.16058400
H      -1.59114460     -1.85838033      1.75960648
H       0.19742227     -1.04136584     -1.34026925
