35
O=CCC/C=C1\CC2CC1C1CCCC21
O       6.21491506     -0.60778710      0.15458411
C       5.48321343      0.37243699      0.05846207
C       4.18508549      0.36592887     -0.70126983
C       3.05917049      0.84889429      0.20384769
C       1.74889755      0.88617612     -0.52849469
C       0.68834726      0.11062863     -0.26166662
C       0.57568042     -0.97958085      0.78454715
C      -0.87437711     -1.45578308      0.54792341
C      -0.96629542     -1.36225767     -0.97998370
C      -0.63082817      0.13184302     -1.01680452
C      -1.67898146      0.74796873     -0.06987186
C      -3.06671927      0.95518759     -0.67803139
C      -4.02147028      0.49289079      0.41245570
C      -3.33131853     -0.73381925      0.98983405
C      -1.85109890     -0.35050887      1.01522675
H       5.77560524      1.33894936      0.50387685
H       3.99034299     -0.65033404     -1.06173819
H       4.30281869      1.02203727     -1.57060968
H       3.00355862      0.21196516      1.09451827
H       3.27912051      1.85942628      0.57042136
H       1.67034731      1.61540657     -1.33363978
H       1.28586087     -1.78692399      0.57581142
H       0.72254453     -0.60360574      1.80116761
H      -1.08197473     -2.44153783      0.96992446
H      -1.95755629     -1.60002126     -1.37583978
H      -0.22605607     -1.98841316     -1.49261033
H      -0.58594660      0.57447652     -2.01379102
H      -1.32635213      1.68478712      0.37998627
H      -3.23700998      2.00192180     -0.94894577
H      -3.20747602      0.35681667     -1.58517334
H      -5.01731306      0.26394169      0.02261376
H      -4.12339291      1.26802364      1.18123735
H      -3.51513285     -1.60754856      0.35461428
H      -3.70358066     -0.97480081      1.99052952
H      -1.58262802      0.03321508      2.00688844
