42
OC[C@H]1OC2(COC3(CO2)O[C@H](CO)[C@@H](O)[C@@H]3O)[C@@H](O)[C@@H]1O
O      -5.68229647      0.91357354      0.15690826
C      -4.34153268      1.26979867     -0.17135876
C      -3.44818836      0.03477485     -0.14554197
O      -2.07323304      0.38801355     -0.34063254
C      -1.26158564     -0.58584333      0.37188512
C      -0.32958833      0.15158288      1.35637914
O       0.58643392      1.02567588      0.66855339
C       1.37126075      0.28401095     -0.28632735
C       0.46264337     -0.50953560     -1.25785264
O      -0.48830937     -1.34344398     -0.56878289
O       2.26524628     -0.61629202      0.39316859
C       3.56858291     -0.52395364     -0.22042930
C       4.57947580     -0.09865650      0.84567544
O       5.89776688     -0.10805305      0.30798369
C       3.47946957      0.46810228     -1.38856480
O       3.22287332     -0.21723621     -2.61998229
C       2.26923179      1.30006301     -1.02010796
O       2.67884255      2.35711057     -0.13038386
C      -2.24664198     -1.54334082      1.08421284
O      -1.84157339     -1.99810232      2.37469303
C      -3.49729660     -0.69376993      1.18627882
O      -4.66110289     -1.48982379      1.36621364
H      -6.22164264      1.71644110      0.03121534
H      -4.32376263      1.72760661     -1.16617267
H      -3.98964174      2.02215561      0.54297888
H      -3.75900130     -0.64142986     -0.95327352
H      -0.91170376      0.78600469      2.03267151
H       0.25711839     -0.54955522      1.96044655
H      -0.09455392      0.16904760     -1.91368492
H       1.04710336     -1.18566354     -1.88710509
H       3.83434713     -1.52157050     -0.58959086
H       4.54328098     -0.79205615      1.69313553
H       4.35891456      0.89958194      1.23642706
H       6.49025741      0.18981275      1.02109721
H       4.38733038      1.06501286     -1.52015543
H       4.04203389     -0.69579816     -2.84658761
H       1.76455108      1.76317572     -1.87344816
H       1.93198089      2.45403514      0.49799780
H      -2.43009279     -2.43744346      0.47455355
H      -2.59523680     -2.51845487      2.71482878
H      -3.42301088     -0.00522836      2.03696882
H      -5.41875001     -0.91032891      1.13451264
