46
CCCCCCOc1ccc(C(=NO)c2ccccc2)c(O)c1
C       6.00066806     -2.17957531      1.17814283
C       5.76259785     -0.88176439      0.42136357
C       4.72518586     -0.00800797      1.12671889
C       4.52647317      1.35740147      0.46214009
C       4.05225781      1.32480689     -0.99589044
C       2.73673335      0.57896149     -1.22033046
O       1.72515542      1.16852444     -0.40441052
C       0.48139071      0.60343128     -0.45036991
C      -0.45363634      1.18316173      0.40978465
C      -1.76888579      0.70876392      0.46661278
C      -2.17218060     -0.35792069     -0.34748559
C      -3.58547119     -0.87150511     -0.30562030
N      -3.82367116     -2.06373005     -0.78626509
O      -5.18039463     -2.39945146     -0.72461064
C      -4.64000778      0.00572263      0.26743288
C      -5.01095515      1.17255688     -0.40775576
C      -5.98215386      2.00586317      0.14708320
C      -6.57692797      1.67104884      1.36564598
C      -6.20716617      0.50096124      2.03246303
C      -5.23675823     -0.33700503      1.48397989
C      -1.21958774     -0.94119392     -1.19899501
O      -1.50380431     -1.99839605     -2.02512255
C       0.09253584     -0.46326495     -1.25716539
H       5.07683904     -2.76131609      1.25879624
H       6.74325747     -2.79152944      0.65659177
H       6.37264350     -1.98246933      2.18863693
H       6.71011165     -0.33787177      0.33339563
H       5.42986276     -1.12483701     -0.59336237
H       3.76860928     -0.53979401      1.18717294
H       5.04613272      0.16310189      2.16212046
H       3.80954478      1.93235761      1.06128277
H       5.47138347      1.91365635      0.50452997
H       3.92165577      2.36531796     -1.31964762
H       4.82888553      0.89237176     -1.63628480
H       2.46145161      0.67245411     -2.27788351
H       2.86246017     -0.48120695     -0.97278537
H      -0.15362013      2.01273513      1.04662501
H      -2.45360598      1.18526493      1.16288590
H      -5.20033701     -3.30306910     -1.09009187
H      -4.55496251      1.42953968     -1.36008240
H      -6.28022247      2.91375022     -0.37140086
H      -7.33690796      2.32064106      1.79367050
H      -6.67957804      0.24025614      2.97614285
H      -4.95190275     -1.25278555      1.99493042
H      -2.41298563     -2.29705162     -1.80080540
H       0.77988761     -0.94890503     -1.94113665
