67
CCCCCCCC/C=C\CCCCCCCC1=NCCN1CCO
C       7.75208269     -4.11826263     -1.06855685
C       7.39767650     -2.80303999     -0.39324419
C       6.32657000     -2.04271427     -1.17490826
C       5.99491976     -0.70469502     -0.50901122
C       4.92401753      0.05285893     -1.29630500
C       4.64513750      1.45581908     -0.74989017
C       4.00010618      1.45391620      0.63864553
C       3.65567607      2.87776487      1.08633112
C       3.00496585      2.88046241      2.44121062
C       1.74662020      3.23631751      2.74824123
C       0.67367967      3.72110780      1.81389976
C      -0.51480761      2.75747170      1.71044357
C      -0.13979842      1.40543267      1.09412246
C      -1.33149068      0.45390982      0.94545940
C      -2.34554066      0.91235871     -0.10466244
C      -3.42289585     -0.14856248     -0.33692168
C      -4.44382642      0.31694994     -1.37261522
C      -5.41668236     -0.79425883     -1.68650643
N      -5.29773351     -1.45532035     -2.81057932
C      -6.37624302     -2.47584045     -2.76508823
C      -7.29292079     -2.08862805     -1.60281327
N      -6.44019444     -1.18426058     -0.84273549
C      -7.06941687     -0.30585726      0.14323767
C      -7.64974254     -1.13089750      1.29966149
O      -6.63526235     -1.95551023      1.87351033
H       8.14203565     -3.94798106     -2.07735767
H       8.51951879     -4.64493679     -0.49157259
H       6.87469153     -4.76951437     -1.14430109
H       8.30084884     -2.18846205     -0.30644746
H       7.04302361     -3.00689123      0.62356563
H       5.41849476     -2.65500775     -1.24436121
H       6.67695905     -1.86495555     -2.19985700
H       5.64954013     -0.88884644      0.51492358
H       6.90384662     -0.09387696     -0.44266126
H       3.99447254     -0.52824140     -1.31133502
H       5.24946582      0.15318455     -2.33902422
H       5.57690106      2.03398086     -0.72489248
H       3.97565518      1.96721406     -1.45332449
H       3.09108997      0.84031965      0.61708017
H       4.67991616      0.99909779      1.36874209
H       4.57271060      3.47704267      1.14524907
H       3.02532090      3.35566534      0.33061369
H       3.64526707      2.55200858      3.26012541
H       1.44956272      3.17353598      3.79528900
H       1.05829349      3.92304857      0.80972719
H       0.31122870      4.68376011      2.19629606
H      -0.95328941      2.59915351      2.70346183
H      -1.28278033      3.24311357      1.09892187
H       0.60251400      0.91005010      1.73087218
H       0.33404711      1.55836824      0.11681475
H      -0.94489910     -0.53220805      0.66160034
H      -1.83001938      0.33050321      1.91404318
H      -1.82718090      1.11699300     -1.04901672
H      -2.82268634      1.84497877      0.21522965
H      -2.95398291     -1.08201052     -0.67279010
H      -3.92659311     -0.37885840      0.60999684
H      -4.99080847      1.19645659     -1.02045735
H      -3.93412411      0.60495915     -2.29974617
H      -6.92416407     -2.49763883     -3.71263547
H      -5.92657388     -3.46203972     -2.60138076
H      -8.18184489     -1.56569641     -1.97402946
H      -7.60178792     -2.96352548     -1.02289989
H      -7.84809215      0.30237050     -0.32690238
H      -6.32265926      0.37195493      0.56883170
H      -8.46494301     -1.77991906      0.96063289
H      -8.04082263     -0.47489907      2.08384265
H      -6.06304884     -2.22877256      1.12813229
