36
CCCCC(CC)COC(=O)NS(N)(=O)=O
C       4.32772618      1.62182560     -1.26889434
C       2.89988048      1.13898971     -1.06406809
C       2.69671435      0.58317676      0.34572748
C       1.24470811      0.18969638      0.64304942
C       0.64466500     -0.91358352     -0.25895536
C       1.47453963     -2.21231556     -0.30138895
C       1.67436087     -2.89883675      1.04287114
C      -0.81264570     -1.20396066      0.14954928
O      -1.60335948     -0.02581690     -0.07185676
C      -2.91091320     -0.15824071      0.27057940
O      -3.41027927     -1.17557121      0.71879254
N      -3.59640266      1.02555834      0.02556658
S      -5.22838804      1.06217402     -0.10220611
N      -5.40471459      2.71616080      0.08323505
O      -5.61433805      0.77085269     -1.45689566
O      -5.86744584      0.50490508      1.05890139
H       4.45361134      2.01269154     -2.28345101
H       5.04186488      0.80409559     -1.12854864
H       4.57697936      2.42132366     -0.56391828
H       2.21007214      1.97256872     -1.23915699
H       2.68052460      0.37060341     -1.81282442
H       2.99408794      1.34712319      1.07552223
H       3.36350788     -0.27044940      0.51083742
H       0.62687798      1.09350056      0.56374165
H       1.18192558     -0.12234857      1.69306933
H       0.61083240     -0.51396226     -1.28128059
H       2.45723148     -2.00739195     -0.74138441
H       0.98745866     -2.92138533     -0.98283289
H       2.26568228     -3.81079339      0.90935416
H       2.21171496     -2.25819287      1.74763363
H       0.72042703     -3.18776307      1.49302529
H      -0.86910078     -1.48264550      1.20832236
H      -1.21559893     -2.01912720     -0.46348212
H      -3.12832986      1.63745581     -0.63130729
H      -6.31780600      2.98197181     -0.29117655
H      -5.36607073      2.92771116      1.08226349
