36
CCCCCCCNC(=O)c1cccnc1
C       6.27164376      0.60344077      0.29524872
C       4.76805887      0.70295285      0.50362921
C       4.02625823      0.80228076     -0.82984789
C       2.51847409      1.01920531     -0.67316896
C       1.79564476     -0.16994798     -0.03670775
C       0.28246756      0.05238557     -0.00922185
C      -0.44070184     -1.13081740      0.63069110
N      -1.87305600     -0.91321098      0.68811421
C      -2.68044895     -1.16922647     -0.40249333
O      -2.26348198     -1.63197049     -1.45787651
C      -4.11475386     -0.82419441     -0.26316574
C      -4.77623983     -0.75671359      0.96564643
C      -6.13079037     -0.42625989      0.99528129
C      -6.77782021     -0.17984966     -0.20583895
N      -6.17197324     -0.24778454     -1.41032763
C      -4.85518207     -0.57787452     -1.41321859
H       6.65524261      1.48645614     -0.22577982
H       6.78371654      0.52960171      1.25976541
H       6.52790014     -0.28252775     -0.29445526
H       4.43362517     -0.17817402      1.06133297
H       4.54827396      1.58273763      1.11926501
H       4.20810011     -0.10185472     -1.42359797
H       4.43406338      1.64353519     -1.40415937
H       2.33669941      1.92398345     -0.08042847
H       2.09539570      1.20395889     -1.66847948
H       2.02176175     -1.08278689     -0.60082476
H       2.15311695     -0.32282526      0.98764066
H       0.05200991      0.96823934      0.54942977
H      -0.08738981      0.20697514     -1.03027937
H      -0.09932274     -1.27812896      1.66070839
H      -0.24160988     -2.05065262      0.06954160
H      -2.22596668     -0.34558398      1.44565657
H      -4.26758161     -0.98379308      1.89678892
H      -6.67320637     -0.37128387      1.93303753
H      -7.83260633      0.07996712     -0.23225703
H      -4.40032112     -0.63360452     -2.39964908
