24
CC(=O)CCc1ccc(O)cc1
C      -2.69594258      0.97812729     -0.25627066
C      -2.30852336      0.14992847      0.93963119
O      -2.39806536      0.59468717      2.08450773
C      -1.81057423     -1.25513830      0.67263302
C      -0.40446871     -1.46269075      1.22555339
C       0.63433485     -0.67636458      0.46156625
C       1.06855686      0.57071223      0.93464553
C       2.00763447      1.31423183      0.21686531
C       2.51099395      0.80929219     -0.97708994
O       3.42805783      1.50193868     -1.71075418
C       2.09105239     -0.42305762     -1.46230540
C       1.15274401     -1.16636381     -0.74509759
H      -3.02115028      1.96924918      0.07184057
H      -1.83514202      1.09200724     -0.91966238
H      -3.51947495      0.49270388     -0.78560699
H      -1.84631483     -1.45792017     -0.40367803
H      -2.51329745     -1.94506162      1.15341715
H      -0.14710949     -2.52815820      1.17349505
H      -0.36188348     -1.19576710      2.28902367
H       0.67190477      0.97199803      1.86634910
H       2.32835854      2.27649014      0.60293509
H       3.64185685      2.32377117     -1.23942342
H       2.49458689     -0.80457529     -2.39586289
H       0.83186532     -2.13004006     -1.13371832
