20
CCc1cccc(C)n1
C      -2.65951186     -0.20719674      1.16399530
C      -1.99039869     -0.81560464     -0.05832158
C      -0.65716343     -0.17354846     -0.33722305
C      -0.57441299      0.97602154     -1.11683375
C       0.67387358      1.54841577     -1.33410934
C       1.80003484      0.96322712     -0.76660459
C       1.64057895     -0.18187739      0.00603466
C       2.83270655     -0.83731391      0.63549285
N       0.43154216     -0.75062898      0.22689137
H      -2.03437092     -0.32206541      2.05610795
H      -3.61835414     -0.69925701      1.35519250
H      -2.84922057      0.86225135      1.02278735
H      -1.84497126     -1.89048881      0.10300875
H      -2.64284642     -0.71716781     -0.93384634
H      -1.46435025      1.42191776     -1.54824211
H       0.76805082      2.44483155     -1.93988278
H       2.78245050      1.39550728     -0.92447377
H       2.53485479     -1.72304403      1.20585494
H       3.54265009     -1.15169585     -0.13580172
H       3.32885825     -0.14228331      1.31997336
