51
C[C@]12CC[C@H]3[C@@H](CC[C@H]4C[C@@H]5S[C@@H]5C[C@@]43C)[C@@H]1CC[C@@H]2O
C      -2.69980359      1.33678264      1.17007760
C      -2.58063525     -0.11391730      0.63753122
C      -1.81146828     -0.97104185      1.65038506
C      -0.33196287     -0.55423473      1.73309595
C       0.37886751     -0.50883364      0.35245087
C      -0.44088801      0.29412639     -0.70602198
C       0.20939830      0.19033063     -2.09072457
C       1.66827160      0.62928259     -2.07003070
C       2.48422798     -0.15169519     -1.02969908
C       3.96268236      0.27396561     -1.10288913
C       4.81211287     -0.27291076     -0.00027415
S       5.00671162     -1.97244027      0.16710701
C       4.17866101     -0.86769042      1.22420262
C       2.68637284     -1.01265126      1.33954856
C       1.88599148     -0.04895278      0.41332996
C       2.00842218      1.38788997      0.98035740
C      -1.87662729     -0.24169755     -0.72677317
C      -2.88174121      0.36279683     -1.70413053
C      -4.25144150     -0.03360525     -1.12384344
C      -3.96971047     -0.66037765      0.25551098
O      -4.97159967     -0.32828338      1.19723269
H      -1.72862837      1.82149158      1.29980098
H      -3.19378701      1.34853270      2.14867906
H      -3.28775181      1.97865727      0.50640422
H      -1.85926192     -2.02917393      1.36188660
H      -2.27037865     -0.90166945      2.64394534
H      -0.26717925      0.41832433      2.22950553
H       0.17671450     -1.26850654      2.39015543
H       0.39082831     -1.55305628      0.00035712
H      -0.45978063      1.35404270     -0.43089499
H       0.14924575     -0.84292626     -2.45594314
H      -0.33515001      0.81143520     -2.81141397
H       1.72462871      1.70678692     -1.87525126
H       2.09707330      0.47315536     -3.06770975
H       2.43736989     -1.21075954     -1.32573624
H       4.02937060      1.36897117     -1.06925281
H       4.38514161     -0.01813367     -2.07304144
H       5.72373618      0.30044636      0.12072100
H       4.65743705     -0.70950149      2.18258581
H       2.41423654     -0.82885836      2.38672587
H       2.39518650     -2.05253080      1.13858304
H       3.04751717      1.72949773      1.01774237
H       1.45323382      2.11898799      0.38705969
H       1.63482535      1.44740137      2.00743825
H      -1.81068714     -1.31242191     -0.98425848
H      -2.78875559      1.45344839     -1.75257375
H      -2.75242920     -0.02650598     -2.71911253
H      -4.91184910      0.83805533     -1.05420729
H      -4.75288498     -0.76177180     -1.77118938
H      -3.94214495     -1.75349767      0.16271473
H      -5.82171825     -0.63676331      0.83983682
