19
CCCCCN
C       2.97263758      0.18812467      0.22319247
C       1.70425001     -0.17435221     -0.53267153
C       0.45480979      0.11314173      0.29956464
C      -0.81954593     -0.25289870     -0.46430534
C      -2.06596430      0.03568154      0.37064442
N      -3.26759899     -0.32754461     -0.37112725
H       3.85355088     -0.02546760     -0.39022656
H       2.98649490      1.25249691      0.47864486
H       3.05573556     -0.38902336      1.14965409
H       1.66797175      0.39573898     -1.46828785
H       1.73681650     -1.23673100     -0.80097774
H       0.49820792     -0.45628216      1.23603970
H       0.42925161      1.17617529      0.56867715
H      -0.85914641      0.31653440     -1.40157586
H      -0.79132218     -1.31633000     -0.73377361
H      -2.10883428      1.09847768      0.63304102
H      -2.03574670     -0.53750145      1.30343889
H      -3.32102134      0.22111986     -1.22841095
H      -4.09054638     -0.08135996      0.17731609
