56
O=P(O)(O)CN(CCCCCCN(CP(=O)(O)O)CP(=O)(O)O)CP(=O)(O)O
O       4.89012584      0.83432929     -2.64148581
P       5.59621016      0.91429399     -1.33001806
O       7.07567257      1.53434284     -1.43423428
O       5.92711661     -0.51358334     -0.66829336
C       4.78574934      1.86690162     -0.01222129
N       3.92131722      0.89664562      0.68569936
C       2.60997105      0.76305004      0.03426897
C       2.08668877     -0.66696082      0.22160079
C       0.73113138     -0.91662403     -0.44289473
C      -0.41430082     -0.14082223      0.21439548
C      -1.77382050     -0.61787838     -0.30818965
C      -2.92370775      0.14684580      0.36223621
N      -4.22419452     -0.36114639     -0.09620960
C      -4.62262451     -1.58393484      0.63339591
P      -5.52253337     -2.64026797     -0.51482125
O      -4.81127355     -3.20819886     -1.70065913
O      -6.87864831     -1.88572769     -0.92438720
O      -6.12720027     -3.82526188      0.38783015
C      -5.27374319      0.67905337     -0.00181000
P      -5.36694887      1.55707539     -1.57532960
O      -6.37421153      2.65648470     -1.68080859
O      -5.58411957      0.45673123     -2.72431412
O      -3.89723731      2.08889741     -1.94218374
C       3.81076206      1.17836057      2.13190551
P       5.21444173      0.37797040      2.94444590
O       5.09220114      0.03856683      4.39200236
O       5.57218722     -0.91661185      2.05472069
O       6.51019172      1.27814067      2.65561531
H       7.56986738      1.09058118     -2.14979290
H       5.53356488     -0.59888196      0.23572007
H       5.57769845      2.24873022      0.64367623
H       4.23946621      2.72733863     -0.40862741
H       2.68965638      0.94601676     -1.04326683
H       1.90869737      1.50841851      0.42564105
H       2.81202634     -1.36799868     -0.21556437
H       2.01253333     -0.92293720      1.28664247
H       0.52172897     -1.99052818     -0.37709432
H       0.78422710     -0.66992099     -1.50996570
H      -0.30308879      0.93064608      0.01265771
H      -0.37739022     -0.27589939      1.30283920
H      -1.86762870     -1.69607613     -0.12857011
H      -1.81885751     -0.46957686     -1.39365726
H      -2.80352890      1.20703109      0.10697475
H      -2.84801876      0.08796923      1.45779813
H      -3.75534096     -2.16442512      0.96699037
H      -5.21730572     -1.35497096      1.52754854
H      -7.25722238     -2.24835995     -1.73992792
H      -6.46263002     -4.56256321     -0.15624084
H      -6.26540605      0.24718416      0.16848769
H      -5.08660223      1.37446898      0.82471985
H      -5.81484868      0.84601778     -3.58608068
H      -3.89527836      2.68914167     -2.70747788
H       2.91978021      0.70276637      2.55488267
H       3.75533231      2.24929147      2.35833316
H       6.13598239     -1.55077460      2.53784180
H       7.28338319      1.02663958      3.19536181
