39
CCCCCCCCNCC(O)CO
C       6.49464281     -0.11626393      0.26583032
C       5.87851831     -1.48248607      0.52439333
C       4.50584584     -1.66691810     -0.12607357
C       3.42962478     -0.74934647      0.45848643
C       2.05731935     -1.04775694     -0.14979495
C       0.98002546     -0.12961216      0.43016899
C      -0.39238209     -0.42860950     -0.17718722
C      -1.46763846      0.49109371      0.40526439
N      -2.76284152      0.17008943     -0.19017953
C      -3.82580319      1.03808849      0.33662707
C      -5.11831849      0.83303082     -0.46984820
O      -4.90009297      1.24176320     -1.83167346
C      -6.27367652      1.65412060      0.10855049
O      -7.44393330      1.44052694     -0.68627314
H       7.51084229     -0.08012833      0.67152543
H       6.55082288      0.09308241     -0.80703886
H       5.91912398      0.68097430      0.74512116
H       6.55534560     -2.24956062      0.12939807
H       5.80529665     -1.65108529      1.60507333
H       4.19975576     -2.71143828      0.01147406
H       4.58620496     -1.50135550     -1.20736618
H       3.38516757     -0.88119119      1.54627821
H       3.68570606      0.29883677      0.26767170
H       1.78974445     -2.09397860      0.04202791
H       2.10256148     -0.91960142     -1.23816338
H       1.24660535      0.91677380      0.23774039
H       0.93574549     -0.25730745      1.51862630
H      -0.65637190     -1.47633416      0.01510042
H      -0.34429496     -0.30203615     -1.26624669
H      -1.51315166      0.35553083      1.49229054
H      -1.20313426      1.53603495      0.20352799
H      -2.72639681      0.31305111     -1.20446152
H      -3.51778655      2.08779842      0.25379666
H      -4.00161619      0.80486651      1.39266035
H      -5.39760774     -0.22693816     -0.49788648
H      -5.79104788      1.38791085     -2.20679207
H      -6.05048768      2.72484811      0.06500340
H      -6.49428727      1.37819815      1.14423380
H      -7.73802964      0.52532893     -0.52934554
