48
CN(C)CCCNC1CC(C)(C)NC(C)(C)C1
C       5.24967696      1.05246181      2.21015480
N       4.97812020      0.60094968      0.84226806
C       5.92473152     -0.45489604      0.47766906
C       3.57545526      0.15748455      0.72760534
C       3.12428631     -0.05328782     -0.72480624
C       1.66716629     -0.52236170     -0.84218566
N       0.71848470      0.51662289     -0.44690206
C      -0.68607201      0.15790288     -0.70993721
C      -1.21328646     -0.91526753      0.24983972
C      -2.71091514     -1.21755071      0.03152720
C      -3.22214939     -2.02069993      1.24731063
C      -2.92496291     -2.09781957     -1.21343342
N      -3.52714796      0.00034029     -0.00937336
C      -3.03916818      1.16146711     -0.76347242
C      -3.36126405      1.05142798     -2.26493027
C      -3.82747773      2.37270281     -0.21937791
C      -1.53718139      1.42079820     -0.53088968
H       5.10931538      0.25127706      2.94491664
H       6.27638919      1.42560762      2.29704618
H       4.59317537      1.88761374      2.47900677
H       5.78924602     -1.35848239      1.08291943
H       5.83368282     -0.72569775     -0.57837437
H       6.95635933     -0.10798174      0.60897010
H       2.93372502      0.93006058      1.16838423
H       3.41214893     -0.75968888      1.30856928
H       3.74700390     -0.81703377     -1.20409014
H       3.26370035      0.87254997     -1.29753253
H       1.53427620     -1.42589119     -0.23737839
H       1.49004803     -0.79621275     -1.88927343
H       0.83073657      0.75207976      0.53813213
H      -0.76839825     -0.18142970     -1.74815812
H      -1.05382992     -0.57609993      1.28369317
H      -0.63903794     -1.84351506      0.14111148
H      -3.12842560     -1.44577501      2.17664934
H      -4.27758944     -2.29633112      1.13316988
H      -2.65096486     -2.94757536      1.37640089
H      -3.99142588     -2.26081743     -1.40854900
H      -2.48105347     -1.67541608     -2.11634797
H      -2.46778028     -3.08490480     -1.07378472
H      -4.49082905     -0.21611688     -0.26356901
H      -4.41712478      0.80635952     -2.42960511
H      -2.76048450      0.29807115     -2.77690464
H      -3.16758126      2.00346555     -2.77379673
H      -3.67227970      2.50168596      0.85870943
H      -4.90544375      2.26040097     -0.38768820
H      -3.51167704      3.30125086     -0.70935508
H      -1.38774249      1.81098612      0.48684972
H      -1.18643493      2.20728609     -1.21315912
