25
Nc1c2ccccc2nc2cc(Cl)ccc12
N       0.07227182     -2.55694124     -0.09570740
C       0.01736527     -1.13847979     -0.20456958
C      -1.23058976     -0.46351228     -0.09443205
C      -2.48445801     -1.10692774      0.07669137
C      -3.67379035     -0.38122152      0.14566613
C      -3.63528425      1.00030130      0.04797572
C      -2.40674500      1.64375720     -0.10543767
C      -1.20950281      0.94251699     -0.16929143
N      -0.08064437      1.65221688     -0.29141954
C       1.09904713      1.02195652     -0.29362203
C       2.24097336      1.80685228     -0.35521981
C       3.51181885      1.24063501     -0.33540652
Cl      4.90306071      2.24965833     -0.40851423
C       3.66175442     -0.13439202     -0.24880161
C       2.52477958     -0.94009876     -0.19351974
C       1.22139289     -0.38066444     -0.22720359
H       0.88849127     -2.96039673     -0.54263442
H      -0.76754930     -3.01385166     -0.43501451
H      -2.54717339     -2.18664225      0.17519501
H      -4.62191151     -0.89551352      0.27926550
H      -4.55137894      1.58237339      0.09992223
H      -2.38080853      2.72965672     -0.16884341
H       2.12987049      2.88707349     -0.41146133
H       4.65000056     -0.58513366     -0.21976881
H       2.66900988     -2.01322253     -0.10660465
