48
CCCCCCC(=O)N(C)S(=O)(=O)c1ccc(N(C)C)cc1
C       6.94973144      1.03785603     -0.55969616
C       6.41155264     -0.21208742     -1.23839494
C       5.56286335     -1.09230117     -0.31697464
C       4.31180671     -0.43009828      0.26956202
C       3.31437055      0.03390138     -0.79717856
C       2.02932317      0.60112803     -0.18619989
C       1.16436488     -0.46244401      0.46427636
O       1.18608084     -1.63068434      0.08773058
N       0.37383961     -0.09400120      1.59044261
C      -0.11470505     -1.15748250      2.49982742
S      -0.51688397      1.35100914      1.65265087
O      -0.61310217      1.75327784      3.04146193
O      -0.04739593      2.28282400      0.65073843
C      -2.13127177      0.81869974      1.12602618
C      -2.34014881      0.48118100     -0.20880976
C      -3.60749129      0.04961890     -0.62244134
C      -4.69690650     -0.03427561      0.26500536
N      -5.96474729     -0.48369695     -0.13309840
C      -6.16623641     -0.90931972     -1.51749090
C      -7.11875100      0.18095913      0.48126156
C      -4.44039143      0.31833795      1.60493808
C      -3.17945298      0.74795972      2.03821609
H       7.62780083      1.56939525     -1.23543559
H       6.14401269      1.72732660     -0.29073964
H       7.50670017      0.78345247      0.34820462
H       7.26090694     -0.80778363     -1.59371103
H       5.84127010      0.07166939     -2.12990409
H       6.18891899     -1.44278617      0.51320633
H       5.26193379     -1.98890417     -0.87396731
H       4.59698274      0.41713268      0.90430757
H       3.82879183     -1.15901754      0.93169879
H       3.77288546      0.82224616     -1.40514629
H       3.07924373     -0.79669748     -1.47357554
H       1.43849348      1.06232170     -0.98492389
H       2.29645981      1.36631274      0.55021106
H      -0.89764549     -1.74749728      2.01323473
H      -0.49736966     -0.75170674      3.44060087
H       0.71503258     -1.82378400      2.75997500
H      -1.53476908      0.54653246     -0.93593542
H      -3.72129781     -0.20507725     -1.67252171
H      -5.44247835     -1.67989146     -1.80631820
H      -6.09664454     -0.06011825     -2.20623049
H      -7.15642800     -1.36209630     -1.64132803
H      -7.19787428     -0.05034628      1.54880540
H      -7.06653785      1.26812195      0.34408628
H      -8.05598305     -0.16381933      0.02955010
H      -5.22336216      0.24190238      2.35430457
H      -3.03549148      1.01275042      3.08327864
