48
CCCCCCCC(=O)OCn1cnc2c1c(=O)n(C)c(=O)n2C
C       6.49550391      2.08668346     -0.42495304
C       5.82185279      0.72472174     -0.37283619
C       4.32256991      0.83059448     -0.65074562
C       3.64817957     -0.54218880     -0.59684147
C       2.14712585     -0.43197926     -0.87194944
C       1.43849758     -1.78935807     -0.94550240
C       1.46816604     -2.60037126      0.34770475
C       0.78381900     -1.89444432      1.48967391
O       1.35441811     -1.48927437      2.49290296
O      -0.54969369     -1.78730744      1.25984869
C      -1.21664142     -1.02402778      2.25983923
N      -2.58800729     -0.84568141      1.82388263
C      -3.69105457     -1.45124787      2.36699382
N      -4.79838442     -1.08678433      1.75121657
C      -4.38023805     -0.22767109      0.78029161
C      -3.03018041     -0.05425008      0.80122449
C      -2.33802492      0.79172774     -0.10633957
O      -1.12208678      0.95283234     -0.06829201
N      -3.19053615      1.41241712     -1.02360080
C      -2.60427337      2.30038227     -2.00852104
C      -4.59242182      1.26100461     -1.07702152
O      -5.26280271      1.85799778     -1.92460353
N      -5.17831127      0.41381959     -0.13538298
C      -6.61412214      0.20089634     -0.12468507
H       6.07007948      2.76361342      0.32278349
H       7.56664412      1.98762618     -0.22309540
H       6.37666247      2.54566063     -1.41163883
H       5.98711033      0.27947324      0.61517419
H       6.29135860      0.06279606     -1.10979321
H       4.16320072      1.28030394     -1.63833273
H       3.85818325      1.49685792      0.08653239
H       3.81785667     -0.98432674      0.39114482
H       4.11003930     -1.20752814     -1.33612751
H       1.67691476      0.19612254     -0.10633651
H       1.99573091      0.08104732     -1.83003026
H       0.39649413     -1.61506448     -1.24148884
H       1.89190035     -2.38719354     -1.74555199
H       2.49593303     -2.83157561      0.64624804
H       0.96978220     -3.56584460      0.20065983
H      -0.77401650     -0.02943989      2.38541738
H      -1.22681819     -1.56410490      3.21305851
H      -3.63376963     -2.14258530      3.19878095
H      -2.85146187      1.93361493     -3.01010276
H      -1.51783553      2.37211710     -1.91627535
H      -3.03740641      3.29892968     -1.88948038
H      -7.01253105      0.49718414      0.85085242
H      -7.11878172      0.78429792     -0.89913471
H      -6.81862320     -0.86047320     -0.29762655
