44
CCCCCCCCCOC(=O)c1ccc(N)cc1
C      -6.15560886      3.01075006      0.85221238
C      -5.76308505      1.56076588      1.08667881
C      -4.47946358      1.20021143      0.33935948
C      -4.08799535     -0.25911374      0.57793304
C      -2.80290048     -0.62030518     -0.17072419
C      -2.41150381     -2.07948191      0.07327608
C      -1.19590270     -2.52826397     -0.74266747
C       0.09829178     -1.82095921     -0.34361924
C       1.29781120     -2.38134400     -1.10356981
O       2.50133363     -1.72709557     -0.67149620
C       2.81077852     -0.57541209     -1.31805645
O       2.16081357     -0.05818967     -2.21278291
C       4.07319014      0.00247234     -0.78186978
C       4.80717654     -0.60760926      0.24185709
C       5.98941816     -0.01902750      0.70577594
C       6.43371021      1.20059683      0.18896019
N       7.67502696      1.71765375      0.57248523
C       5.73001423      1.77429374     -0.87231063
C       4.54700521      1.19431602     -1.34238047
H      -6.33025121      3.20287222     -0.21123758
H      -7.07582504      3.24693660      1.39565421
H      -5.37146372      3.69067386      1.20028891
H      -5.62754372      1.39431162      2.16167896
H      -6.58107326      0.90920249      0.75795058
H      -3.66563383      1.85765960      0.66877583
H      -4.61898852      1.37230669     -0.73487551
H      -3.94765574     -0.43116206      1.65205593
H      -4.90239024     -0.91586011      0.24863911
H      -2.94464225     -0.45212647     -1.24508175
H      -1.99784544      0.04531858      0.15980266
H      -3.25750861     -2.72579740     -0.19186955
H      -2.21649277     -2.23746016      1.14099010
H      -1.07079137     -3.60911357     -0.60189256
H      -1.39070524     -2.36974506     -1.81032288
H       0.02237462     -0.74467998     -0.53306835
H       0.27289151     -1.92626553      0.73425189
H       1.16926142     -2.29545101     -2.18927166
H       1.42017890     -3.44668587     -0.87971081
H       4.48258458     -1.54740038      0.68088683
H       6.56211583     -0.52570874      1.47856327
H       7.96006566      1.45759011      1.51148221
H       7.77927465      2.71288889      0.40047851
H       6.09580796      2.68199712     -1.34555240
H       4.00614551      1.67144061     -2.15745618
