28
CN1[C@H]2CC[C@@H]1[C@@H](C(=O)O)[C@@H](O)C2
C      -1.38446806     -2.00141152     -0.86753405
N      -0.43672252     -0.91689477     -0.61766724
C      -0.87702985      0.37152244     -1.18027759
C      -1.89980010      0.89291946     -0.16476818
C      -1.49985297      0.23645552      1.16065558
C      -0.26874768     -0.61671504      0.82048552
C       1.04580441      0.18386713      0.98052348
C       2.23157334     -0.69193922      0.64298700
O       3.08195023     -0.47973429     -0.20907123
O       2.34095661     -1.76576902      1.45303395
C       1.01245813      1.47200578      0.13054172
O       2.28458929      2.10493417      0.01347477
C       0.37887029      1.26086934     -1.25168347
H      -2.38705606     -1.81554506     -0.46926865
H      -1.47537476     -2.17865294     -1.94481113
H      -1.01210579     -2.93269253     -0.42675497
H      -1.30419343      0.27515536     -2.18466347
H      -2.91280095      0.57408720     -0.43782586
H      -1.90819845      1.98544341     -0.09402699
H      -2.32166156     -0.39700628      1.51555308
H      -1.29987628      0.97844694      1.94052929
H      -0.23268467     -1.52522340      1.43287667
H       1.18685732      0.48172268      2.02841297
H       3.14308292     -2.22446534      1.12551600
H       0.39335302      2.20173402      0.66654068
H       2.87971865      1.47246193     -0.44186917
H       1.11444886      0.81740321     -1.93600676
H       0.12691007      2.23702079     -1.68490197
