10
ClC(Cl)=CC(Cl)=C(Cl)Cl
Cl      2.60774517      0.71390366     -1.88404975
C       1.54283572      0.09028043     -0.67125979
Cl      2.06510196     -1.31589091      0.18468964
C       0.38545334      0.71895206     -0.41838144
C      -0.60654183      0.33763048      0.57083772
Cl     -0.65658746      1.42250383      1.93544596
C      -1.43650364     -0.71930044      0.47212834
Cl     -1.44767033     -1.75907101     -0.92191213
Cl     -2.60184632     -1.12036512      1.69484612
H       0.14801339      1.63135703     -0.96234467
