29
CCCCNS(=O)(=O)c1ccccc1
C       4.36540763      0.74153279     -0.65776372
C       3.32567009     -0.21997289     -0.10279102
C       2.02466242     -0.15934059     -0.90696829
C       0.97807558     -1.16336590     -0.42477957
N       0.46578021     -0.76320290      0.88738039
S      -1.02157153     -1.36761994      1.38465905
O      -1.18603648     -2.68423780      0.80972678
O      -1.09088252     -1.14480044      2.81194196
C      -2.15329334     -0.24558631      0.60814991
C      -2.92740686     -0.67145849     -0.47473819
C      -3.82237481      0.21861200     -1.06870917
C      -3.94438887      1.52001680     -0.57738920
C      -3.17594286      1.93684539      0.51127779
C      -2.27886598      1.05320051      1.11074724
H       4.00342447      1.77400547     -0.62156985
H       4.60978298      0.49873362     -1.69682698
H       5.28690604      0.68366417     -0.07002369
H       3.13816872      0.03149459      0.94670950
H       3.73036726     -1.23841658     -0.12606303
H       2.24869109     -0.37368215     -1.95929169
H       1.61277640      0.85680595     -0.86707448
H       1.41339835     -2.16594225     -0.35921250
H       0.16206298     -1.18636355     -1.15477526
H       1.11927267     -0.67762905      1.66428475
H      -2.84231519     -1.68614848     -0.85671324
H      -4.42945346     -0.10237391     -1.91184733
H      -4.64557421      2.21019255     -1.04089657
H      -3.28059676      2.94897939      0.89452320
H      -1.68574400      1.37605800      1.96322035
