36
Cc1c(C)c2c3ccccc3ccc2c2ccccc12
C      -2.17973776     -2.74593955      0.42840558
C      -1.52374509     -1.40282896      0.16588989
C      -0.10962033     -1.31756178      0.03110882
C       0.64404041     -2.61932600     -0.16977559
C       0.57197148     -0.05123275     -0.01680552
C       2.02242257      0.15421597      0.13463559
C       2.95105357     -0.80183111      0.63324463
C       4.33078788     -0.57424539      0.71896904
C       4.85081098      0.64587399      0.33171360
C       3.98219589      1.64001415     -0.09814405
C       2.59509423      1.41324760     -0.16987127
C       1.77463502      2.46913531     -0.52216927
C       0.39312638      2.31575673     -0.51967312
C      -0.25305182      1.08937115     -0.24675096
C      -1.69532880      1.00086546     -0.22092327
C      -2.55683644      2.12432760     -0.39572840
C      -3.94982201      2.03982893     -0.35546396
C      -4.54617048      0.81703633     -0.13829891
C      -3.74246382     -0.30575234      0.03848188
C      -2.32316814     -0.24669668      0.00901294
H      -1.48760509     -3.47149606      0.86572023
H      -2.97915148     -2.65564475      1.17106719
H      -2.58296784     -3.15772503     -0.50177808
H       0.89856256     -3.07502701      0.79118208
H       1.53886373     -2.47933046     -0.78306058
H       0.04719090     -3.33283207     -0.74964095
H       2.60892739     -1.75382464      1.02255769
H       4.98582103     -1.35204194      1.10236864
H       5.91817642      0.83616011      0.39264922
H       4.39666715      2.61149653     -0.36095152
H       2.18926285      3.44686912     -0.75786572
H      -0.17094095      3.21133875     -0.76081328
H      -2.15578656      3.11963121     -0.56033284
H      -4.55524471      2.93115300     -0.49396828
H      -5.62812277      0.72727445     -0.10898212
H      -4.25984638     -1.25025989      0.18675456
