37
CC(=O)N1CCOc2cc(COc3ccccc3)cnc21
C      -3.67097769      2.27578663     -1.67522874
C      -4.51390665      1.30751711     -0.88498773
O      -5.74533487      1.37674671     -0.99043727
N      -3.91695087      0.37971277     -0.04566434
C      -4.79487880     -0.50140454      0.72081312
C      -4.14261022     -0.92744525      2.02351715
O      -2.91682705     -1.62088011      1.77985433
C      -2.10034139     -0.92845062      0.91950462
C      -0.75422253     -1.29381630      0.95074503
C       0.15959928     -0.64049249      0.12650608
C       1.61537219     -1.01681923      0.10486058
O       2.40143223      0.17236901      0.15264869
C       3.76009107      0.02375663      0.10547822
C       4.45425475     -1.18416148      0.02006314
C       5.85236749     -1.18821911     -0.02166882
C       6.56074405      0.01138358      0.02206127
C       5.87279151      1.21884748      0.10808576
C       4.47768191      1.22231566      0.14963409
C      -0.34463361      0.34419455     -0.71165214
N      -1.65055563      0.70170603     -0.77509370
C      -2.52947019      0.06931195      0.02804455
H      -4.32571928      3.02886304     -2.12703060
H      -3.15384637      1.75833595     -2.48662564
H      -2.97442401      2.80809407     -1.02293960
H      -5.00575298     -1.37185284      0.08698441
H      -5.74575389     -0.00287219      0.93769236
H      -3.94428450     -0.06795962      2.67667220
H      -4.80487391     -1.60914678      2.56715087
H      -0.43119641     -2.07937674      1.62899819
H       1.81103711     -1.57542652     -0.81883970
H       1.84746639     -1.64350892      0.97465324
H       3.94468650     -2.14084959     -0.01557432
H       6.38990288     -2.13096642     -0.08829628
H       7.64718323      0.00476042     -0.01040589
H       6.41916464      2.15759762      0.14326440
H       3.94490349      2.16780716      0.21779380
H       0.30788213      0.89454239     -1.38667563
