52
CCOC(=O)C1=CC2(CC)CCCN3CCc4c(n1c1ccccc41)C32
C       5.39956602     -2.00422167     -0.02821553
C       4.69714880     -0.98987149      0.85287475
O       3.31325422     -0.96321244      0.48612498
C       2.56531901     -0.08340492      1.20299531
O       2.97372588      0.63852180      2.09886089
C       1.16029533     -0.12264312      0.73974809
C       0.56431440     -1.34653690      0.67866091
C      -0.86329310     -1.51259117      0.12870239
C      -0.76231788     -1.67186680     -1.42741002
C      -0.03718818     -2.92625243     -1.90895834
C      -1.63619544     -2.68943622      0.77096323
C      -3.11561655     -2.69028254      0.33868557
C      -3.81159100     -1.32498366      0.51541490
N      -3.02928957     -0.22326146     -0.06701747
C      -3.68082097      1.09794648      0.14393803
C      -2.89543948      2.29663564     -0.48533269
C      -1.43682445      2.17576474     -0.20280693
C      -0.92308980      0.98313244      0.21281769
N       0.43764896      1.03790107      0.38955199
C       0.81660138      2.35812665      0.11981913
C       2.07303485      2.99274498      0.13771930
C       2.15220294      4.34474937     -0.21318406
C       1.01895105      5.05657476     -0.58544811
C      -0.22936436      4.43128949     -0.61756986
C      -0.34271789      3.07081193     -0.26548577
C      -1.68016409     -0.24602884      0.53336705
H       6.46414816     -2.06173125      0.21506672
H       5.29190308     -1.73709260     -1.08470783
H       4.95395083     -2.99675534      0.09606728
H       4.79559599     -1.28187416      1.90440936
H       5.13925301      0.00129681      0.70144035
H       1.11047498     -2.25030232      0.93838533
H      -1.75789398     -1.66781765     -1.88520751
H      -0.24280760     -0.80610325     -1.85886034
H      -0.57343086     -3.83586943     -1.62525697
H       0.98232481     -2.98366357     -1.51723127
H       0.03012774     -2.91605937     -3.00211362
H      -1.59341871     -2.60640639      1.86577690
H      -1.17818766     -3.65451183      0.52885366
H      -3.18831997     -2.99881124     -0.71108352
H      -3.65787866     -3.44669639      0.91832322
H      -4.79520409     -1.37400637      0.03345307
H      -3.98552872     -1.15151172      1.58570203
H      -4.68562743      1.08632250     -0.29537263
H      -3.80171543      1.28249662      1.22048495
H      -3.04572414      2.29513183     -1.57166716
H      -3.28946915      3.23918731     -0.09040476
H       2.97909723      2.46666289      0.41716908
H       3.11867715      4.84351086     -0.19413831
H       1.10242778      6.10601915     -0.85561850
H      -1.10993524      4.99362033     -0.91420317
H      -1.79098924     -0.23464111      1.63191824
