26
CN1CCCC1c1cccnc1
C      -1.53885772     -1.87152431     -0.37631486
N      -1.28049603     -0.59379466      0.27604240
C      -2.50992296      0.16390996      0.50645716
C      -1.97155058      1.53294843      0.87167253
C      -0.75235661      1.70582564     -0.02550815
C      -0.40682643      0.29105762     -0.51972269
C       1.06313120     -0.01207793     -0.37070539
C       1.64116843     -0.36929220      0.85263764
C       3.00903715     -0.61341245      0.93100686
C       3.76430031     -0.48509589     -0.22196669
N       3.25149841     -0.13438624     -1.42034176
C       1.91834830      0.09409168     -1.46467434
H      -2.02101085     -1.75171933     -1.35318795
H      -0.60847832     -2.43143453     -0.51908823
H      -2.18775072     -2.49280873      0.25075088
H      -3.12689652      0.22839784     -0.39885851
H      -3.11148132     -0.26104838      1.31590454
H      -1.66172933      1.55197178      1.92397135
H      -2.71026533      2.32606041      0.72243058
H      -1.00547103      2.34517086     -0.87998454
H       0.05733885      2.19776760      0.52525862
H      -0.68905410      0.22556497     -1.58063119
H       1.02357135     -0.46180110      1.74317052
H       3.47228509     -0.89658502      1.86901142
H       4.83520375     -0.66544031     -0.21156401
H       1.54626501      0.37765429     -2.44576617
