11
O=c1ccnc[nH]1
O       2.38143186     -0.40119093      0.03138545
C       1.17231349     -0.20899986      0.01521788
C       0.60354827      1.14665314      0.03313602
C      -0.72825035      1.25832173      0.01331096
N      -1.60612475      0.20575334     -0.02247438
C      -1.08418710     -0.97417357     -0.03762438
N       0.25714314     -1.21913709     -0.02033074
H       1.27775155      1.98977508      0.06132033
H      -1.18482472      2.24508995      0.02564770
H      -1.70757712     -1.88153584     -0.06626201
H       0.61877573     -2.16055595     -0.03332681
