63
CCCCCCCC/C=C\CCCCCCCCO.O=P(O)(O)O
C      -6.84291979      1.03178430      1.98155728
C      -5.35002549      0.92636402      1.71047591
C      -4.98401489      1.06582775      0.23030816
C      -5.48046299     -0.10116793     -0.62694079
C      -5.13127058      0.04189732     -2.11250792
C      -3.63873864      0.12448142     -2.44680814
C      -2.84223820     -1.10043187     -1.99149844
C      -1.38530612     -1.01280555     -2.45058321
C      -0.60750094     -2.22743509     -2.02998563
C       0.32890202     -2.29995429     -1.07032859
C       0.77757389     -1.19802317     -0.15292870
C       2.16707650     -0.68608595     -0.53870405
C       2.63785746      0.40894497      0.42140381
C       3.97089919      1.04469313      0.01523591
C       5.16666557      0.09058453     -0.06525682
C       5.47260416     -0.69788950      1.21164727
C       5.72264228      0.14668852      2.46632014
C       6.88827702      1.12189164      2.35094338
O       8.08350771      0.41821594      2.04816306
O      -1.03135679      1.14737054      0.74822683
P      -0.13880586      0.15671996      0.10046319
O      -0.84096498     -0.87496652     -0.88424718
O       0.66081549     -0.80709530      1.08006088
O       1.02263515      0.75086038     -0.80716044
H      -7.39226985      0.19420879      1.54220228
H      -7.25062410      1.96434340      1.57850280
H      -7.02926071      1.01941792      3.06048077
H      -4.97349502     -0.02660705      2.10019164
H      -4.84036186      1.72042382      2.26944003
H      -3.89187991      1.12931455      0.16478766
H      -5.38230299      2.00987366     -0.16074767
H      -5.08363481     -1.04511707     -0.23669443
H      -6.57169169     -0.17253994     -0.55269395
H      -5.62385844      0.93954122     -2.50677302
H      -5.56656983     -0.80878086     -2.65187160
H      -3.20515285      1.03306347     -2.01352648
H      -3.54226045      0.22912053     -3.53504843
H      -3.30575107     -2.00944739     -2.39499265
H      -2.87048463     -1.17999562     -0.89839554
H      -1.34446953     -0.94460305     -3.54473229
H      -0.92844118     -0.09208368     -2.07313963
H      -0.82667969     -3.13505695     -2.59200781
H       0.81531943     -3.26197025     -0.90988244
H       0.06147991     -0.36961187     -0.14061091
H       0.79931641     -1.59393361      0.87004308
H       2.87690167     -1.52170089     -0.53014715
H       2.14440709     -0.29135015     -1.56236368
H       1.88175014      1.20375845      0.45554481
H       2.70654303      0.00633244      1.43855129
H       4.19920783      1.85450653      0.71836337
H       3.84842361      1.52415318     -0.96439232
H       5.00615433     -0.62260752     -0.88264856
H       6.05219719      0.66936935     -0.35445022
H       4.64809573     -1.39039804      1.41776349
H       6.34951610     -1.32967633      1.02313960
H       4.81543881      0.69572008      2.74005200
H       5.93132001     -0.54772700      3.28989953
H       6.71045553      1.86945448      1.57256769
H       7.02900685      1.64488080      3.30238219
H       8.80012676      1.07454711      2.01069396
H      -1.53412637     -1.38104744     -0.42473272
H       1.19997258     -0.29600856      1.70976588
H       0.66183078      1.30416695     -1.52237645
