29
COc1ccc(C(=O)N2CCCC2=O)cc1
C       5.32313885      0.49076147     -0.24917401
O       4.30546272     -0.23808801     -0.92386043
C       3.04591860     -0.17428951     -0.39491651
C       2.67904060      0.49574589      0.77284740
C       1.34745805      0.47723548      1.20413574
C       0.37125912     -0.19972937      0.46330841
C      -1.02040652     -0.23864497      0.98636616
O      -1.19305943     -0.24641527      2.20543841
N      -2.08216473     -0.25399782      0.08500921
C      -3.40654112     -0.53210963      0.58711527
C      -4.28321803     -0.47273248     -0.64062365
C      -3.64090083      0.63636845     -1.45360022
C      -2.18305013      0.55457697     -1.06084630
O      -1.28641174      1.11377214     -1.67146066
C       0.74173814     -0.88958757     -0.69450297
C       2.07283560     -0.86732454     -1.12097649
H       5.48283605      0.10069978      0.76142969
H       6.25488811      0.35871988     -0.80761507
H       5.09594348      1.56182634     -0.22914156
H       3.40116457      1.03723038      1.37455632
H       1.07409124      0.99315640      2.12239986
H      -3.43240493     -1.50688494      1.08399935
H      -3.68233936      0.24235481      1.31336801
H      -5.33397322     -0.27986330     -0.40807862
H      -4.22343088     -1.41879263     -1.19282595
H      -4.02712531      1.62035953     -1.17049936
H      -3.76660204      0.47515188     -2.52698382
H       0.01089874     -1.44481689     -1.27456353
H       2.35495440     -1.39468247     -2.02925990
