28
CCCCCCCOC(N)=O
C      -4.92482293      0.19594260      0.20118112
C      -3.54825502      0.83610919      0.11900001
C      -2.44432037     -0.21796008      0.03851044
C      -1.06128716      0.43009253     -0.04399834
C       0.04351513     -0.62459257     -0.12445491
C       1.42449669      0.02251607     -0.20676240
C       2.53088996     -1.02504174     -0.28955606
O       3.80841654     -0.38228653     -0.41814891
C       4.41085078     -0.04544681      0.74329087
N       5.60021792      0.54174244      0.48748663
O       3.97777627     -0.22434829      1.86945560
H      -5.01057953     -0.43729458      1.08999634
H      -5.12397222     -0.42081816     -0.68102158
H      -5.69891328      0.96761348      0.25792305
H      -3.39379992      1.47082738      0.99933035
H      -3.50656564      1.48721763     -0.76192237
H      -2.49308677     -0.86906502      0.91984820
H      -2.60584474     -0.85267707     -0.84132722
H      -0.89995245      1.06468583      0.83594140
H      -1.01258920      1.08100159     -0.92545589
H      -0.11790334     -1.25926622     -1.00426667
H      -0.00482074     -1.27529119      0.75714959
H       1.48427244      0.68094984     -1.08233009
H       1.58956052      0.66745211      0.66474052
H       2.51465164     -1.70406124      0.57156573
H       2.39643356     -1.64231453     -1.18458094
H       6.16538762      0.86020804      1.25935076
H       5.90024422      0.67410528     -0.46525601
