43
Cc1ccc(S(=O)(=O)C2(C(=O)OC(C)C)CCCC2)cc1
C       4.25214151     -0.81252990     -3.54753463
C       3.42061641     -0.48581000     -2.34177853
C       2.65907522     -1.48204203     -1.71716812
C       1.90974118     -1.19010245     -0.57623044
C       1.91024349      0.10868204     -0.06346020
S       0.98696158      0.47245553      1.41681052
O       0.82479988     -0.78255447      2.12967405
O       1.67829246      1.57092492      2.07260014
C      -0.62171895      1.06209169      0.89369171
C      -1.26768123     -0.07371013      0.12652945
O      -1.18617094     -0.21684874     -1.08730355
O      -1.94596537     -0.92274527      0.94517357
C      -2.62881256     -2.02985092      0.32526078
C      -3.74142368     -2.45309463      1.27652770
C      -1.65276789     -3.17662284      0.09398852
C      -0.51620218      2.34113496      0.02380205
C      -1.54293989      3.31315635      0.59052207
C      -1.50263624      3.02169051      2.07577883
C      -1.46652815      1.50036757      2.11956383
C       2.70389805      1.09895264     -0.64756286
C       3.45230803      0.80041265     -1.78759011
H       3.78095649     -1.60027600     -4.14473305
H       4.36176532      0.06374467     -4.19508991
H       5.24564807     -1.14983597     -3.23662664
H       2.65008706     -2.49536092     -2.11376802
H       1.33964450     -1.98188224     -0.09690756
H      -3.08240327     -1.71485183     -0.62227717
H      -4.31476548     -3.29224418      0.87103651
H      -4.42626353     -1.61723842      1.45656518
H      -3.33589752     -2.74255046      2.25243429
H      -2.16611425     -4.06325084     -0.29065543
H      -1.13313896     -3.44299530      1.02089721
H      -0.88242512     -2.89103536     -0.62852185
H       0.47030715      2.80882741      0.10781831
H      -0.69732690      2.17468868     -1.04253581
H      -2.53730496      3.09643702      0.18267278
H      -1.29755976      4.35440871      0.36287905
H      -0.59490555      3.43950662      2.52631719
H      -2.36794297      3.43102641      2.60485987
H      -1.06801307      1.14594954      3.07581000
H      -2.50000009      1.13960066      2.04681303
H       2.76124770      2.09753941     -0.22072040
H       4.06917439      1.57583487     -2.23756236
