25
CCCCCC(=O)CC
C      -4.21997106      0.29881783     -0.13913969
C      -2.92989988      0.21342650     -0.93909274
C      -1.72099705     -0.00760760     -0.03031634
C      -0.42572176     -0.09291232     -0.83853528
C       0.78259056     -0.31301271      0.06932327
C       2.08377032     -0.41482180     -0.70997457
O       2.14134239     -0.25540109     -1.92914340
C       3.33713322     -0.69620643      0.09299073
C       3.89075158      0.57568190      0.70286474
H      -4.39574069     -0.62475641      0.42162005
H      -4.18690920      1.13129760      0.57094552
H      -5.07129246      0.45698201     -0.80857765
H      -2.80059628      1.13866483     -1.51261041
H      -3.00825622     -0.60770838     -1.66110767
H      -1.85733395     -0.93205676      0.54403123
H      -1.64958206      0.81427574      0.69251596
H      -0.28991665      0.82974796     -1.41648760
H      -0.49612269     -0.91261756     -1.56442334
H       0.87168743      0.51773670      0.77713408
H       0.65560023     -1.24254183      0.63526074
H       3.10872052     -1.43581530      0.86729608
H       4.07814724     -1.14984773     -0.57456264
H       4.09772684      1.32360513     -0.06972791
H       4.82217720      0.36783244      1.23828963
H       3.18269243      1.01723728      1.41127634
