45
CC1N(c2c(F)cc3c(=O)c(C(=O)O)cn(C4CC4)c3c2F)CC1(C)N
C       2.68109498      0.00655648      1.96402399
C       2.81377094     -0.70285720      0.62202159
N       2.21687711      0.03315255     -0.47063576
C       0.90037506      0.50865223     -0.64892530
C       0.62649313      1.60069508     -1.48405589
F       1.62018538      2.23090976     -2.12917652
C      -0.66385779      2.08373092     -1.66468948
C      -1.72900014      1.45908737     -1.01272460
C      -3.09481196      2.00787033     -1.18734018
O      -3.31128240      2.96465618     -1.92819428
C      -4.20278294      1.39507217     -0.42854734
C      -5.59137565      1.89816621     -0.45144905
O      -6.49771764      1.39643455      0.19749904
O      -5.78738580      2.96734858     -1.25263172
C      -3.90622961      0.31766454      0.31223059
N      -2.66269963     -0.28052551      0.42001844
C      -2.53968714     -1.48282672      1.26789423
C      -3.55251462     -2.60480608      1.25272234
C      -2.19338653     -2.82679120      0.67242895
C      -1.52829666      0.33556060     -0.18916028
C      -0.20043697     -0.10956045     -0.01937594
F       0.04209937     -1.16267228      0.77853746
C       3.46526803      0.59399898     -0.90785696
C       4.17448778     -0.55063126     -0.13765419
C       5.45479016     -0.22669012      0.59612892
N       4.34581397     -1.71603638     -1.04054334
H       2.96817599      1.06201826      1.90844747
H       1.65444960     -0.04240426      2.33963007
H       3.32043655     -0.47633962      2.71054846
H       2.43895411     -1.73253132      0.68048905
H      -0.82121487      2.94533576     -2.30840890
H      -4.97685831      3.27265459     -1.72874117
H      -4.68303457     -0.17331711      0.89643850
H      -2.10391899     -1.24772248      2.23731013
H      -4.38451864     -2.56596715      0.55981291
H      -3.78706848     -3.08372093      2.19645826
H      -1.49550413     -3.45051513      1.21875266
H      -2.10720725     -2.90466463     -0.40483243
H       3.58629315      0.60373624     -1.99497251
H       3.62799657      1.60031674     -0.50599361
H       5.34612795      0.66485143      1.22242266
H       5.75728680     -1.05376760      1.24761034
H       6.27458515     -0.03046450     -0.10397434
H       5.02820840     -1.56092356     -1.78137407
H       3.47702055     -1.96273403     -1.52016821
