30
O=C(Cn1cnc([N+](=O)[O-])n1)Nc1cc(C(F)(F)F)ccc1Cl
O      -0.06129819     -2.42048448     -0.57581684
C       0.62728960     -1.42392965     -0.77676913
C       2.09076796     -1.57044868     -1.12656635
N       2.92606636     -0.98887988     -0.10241605
C       3.54410067     -1.61879919      0.93355670
N       4.21844278     -0.74337438      1.64543015
C       3.96744765      0.43904059      0.98764136
N       4.51132102      1.72030982      1.41820110
O       5.24600577      1.71646269      2.41778068
O       4.20664144      2.72844452      0.76060128
N       3.17093837      0.33901393     -0.09434649
N       0.19489828     -0.11067073     -0.73858319
C      -1.10878039      0.37459700     -0.47599702
C      -2.21874942     -0.45996010     -0.30725409
C      -3.49790507      0.07242452     -0.05103407
C      -4.67299644     -0.85864693      0.14126961
F      -4.74610650     -1.81854366     -0.82108770
F      -4.62219614     -1.51740516      1.33068344
F      -5.87564264     -0.21883115      0.11901679
C      -3.65468743      1.46232949      0.04317539
C      -2.55838625      2.30681776     -0.12739574
C      -1.29718647      1.76665414     -0.38683398
Cl      0.02929447      2.85972370     -0.59125526
H       2.30593603     -1.07647500     -2.07967843
H       2.34752406     -2.63065571     -1.21944666
H       3.47245913     -2.68283297      1.12066424
H       0.90777460      0.61788367     -0.82603222
H      -2.12673771     -1.54163666     -0.37392931
H      -4.63396420      1.89407690      0.24827105
H      -2.69227135      3.38379560     -0.05554562
