45
C#CCN1CC(=O)N(COC(=O)C2C(C=C(C)C)C2(C)C)C1=O
C       7.31868419     -2.10989827      1.32696783
C       6.13421266     -2.22684250      1.16448483
C       4.68661645     -2.36807668      0.96825545
N       4.14618165     -1.22151655      0.27479008
C       4.45544299     -0.91639241     -1.10184950
C       3.64662896      0.35573524     -1.28863113
O       3.58556940      0.99337489     -2.33076435
N       3.02205311      0.65165527     -0.11346038
C       2.13430920      1.76300948      0.08389255
O       0.81851613      1.33254641     -0.25466661
C      -0.11270302      2.29595814     -0.05115078
O       0.10467003      3.43354847      0.33769135
C      -1.47766065      1.83298251     -0.39071631
C      -1.92696523      0.41462207     -0.10027168
C      -2.73811729     -0.29194544     -1.10217201
C      -3.65490764     -1.25283260     -0.87483681
C      -4.00565782     -1.76617486      0.49421492
C      -4.41282713     -1.89386870     -2.00474922
C      -2.50798831      1.56970999      0.69920217
C      -2.10033145      1.66635980      2.15035605
C      -3.91445402      2.05628762      0.44323335
C       3.29746917     -0.28653410      0.83561482
O       2.87078418     -0.30877284      1.97884862
H       8.36849296     -2.00319649      1.47765113
H       4.46012736     -3.25791043      0.37152923
H       4.18713528     -2.47962786      1.93626810
H       4.09129672     -1.71279343     -1.75380629
H       5.52191258     -0.71750664     -1.22359002
H       2.17298017      2.07093803      1.13506119
H       2.43761806      2.58605644     -0.57288878
H      -1.84626695      2.30021639     -1.29901608
H      -1.21442831     -0.23492636      0.40347992
H      -2.55255690     -0.00292894     -2.13649149
H      -5.06198772     -1.57430834      0.70906501
H      -3.83181926     -2.84596783      0.54786350
H      -3.41650308     -1.30039860      1.28922189
H      -4.22321772     -2.97200919     -2.02510462
H      -4.12630520     -1.48721597     -2.98025100
H      -5.48830868     -1.73151983     -1.87962526
H      -1.10399675      1.24999361      2.33325120
H      -2.09486827      2.71200821      2.47505873
H      -2.80774182      1.11500129      2.77874742
H      -4.03215690      3.08035600      0.81341724
H      -4.17088298      2.06257711     -0.62134509
H      -4.63804817      1.42022792      0.96348922
