36
O=C(OCC(=O)N1CCC(O)CC1)c1ccccc1
O       1.63397414     -1.30923528      0.87042507
C       2.17935758     -0.22922049      0.70247559
O       1.56787793      0.98121409      0.75084694
C       0.14672505      0.90948821      0.87985829
C      -0.55319340      0.58627087     -0.44861872
O       0.07532785      0.58406766     -1.51017080
N      -1.92269847      0.29993892     -0.39949844
C      -2.60151040      0.08029841     -1.67771038
C      -3.79484615     -0.85484417     -1.53961922
C      -4.72986463     -0.38183815     -0.43330984
O      -5.80030834     -1.30643603     -0.27089084
C      -3.97282047     -0.23644665      0.88147731
C      -2.77851530      0.69402615      0.72125334
C       3.63745057     -0.07253940      0.45194243
C       4.21672114      1.16364403      0.13446537
C       5.59240526      1.25622006     -0.09124229
C       6.39393367      0.11830959     -0.00331348
C       5.82398332     -1.11558833      0.30729866
C       4.44943563     -1.21230179      0.53310114
H      -0.12643105      0.18095699      1.65104190
H      -0.19102847      1.89865698      1.20597402
H      -2.92178368      1.06138405     -2.04925149
H      -1.90583298     -0.33552943     -2.41458119
H      -4.33813127     -0.92404350     -2.48927362
H      -3.44622352     -1.87196104     -1.31718245
H      -5.17445670      0.58081004     -0.71137177
H      -5.41976433     -2.17994319     -0.07248286
H      -3.63280283     -1.22358528      1.22134707
H      -4.64445597      0.13614590      1.66378747
H      -3.11437547      1.71932878      0.52373075
H      -2.21897554      0.71741869      1.65861046
H       3.60828403      2.06058758      0.05074390
H       6.03767281      2.21633917     -0.34048343
H       7.46393074      0.19253167     -0.18201769
H       6.44807299     -2.00354038      0.37071373
H       4.01286625     -2.18058473      0.77060152
