56
CCCCCCCCCCCC(=O)OCCCCCC
C      -8.11839633      2.97518192     -0.51898024
C      -7.32530480      1.68870462     -0.34556267
C      -6.43649310      1.74554628      0.89744480
C      -5.70251099      0.43198392      1.18170670
C      -4.66845199      0.06940647      0.11345771
C      -3.88669558     -1.18814816      0.50360360
C      -2.85187898     -1.55013073     -0.56380319
C      -2.11197075     -2.85955654     -0.27461705
C      -1.31240987     -2.89736206      1.03184930
C      -0.26614355     -1.79250278      1.20107472
C       0.80857444     -1.80373801      0.11485579
C       1.88833608     -0.78058885      0.38171222
O       1.89288909      0.02740176      1.29905604
O       2.85959444     -0.89148772     -0.56926639
C       3.94061907      0.04036328     -0.41852363
C       4.92957085     -0.20140818     -1.55442141
C       6.08807193      0.79577602     -1.58457760
C       7.01158118      0.68958293     -0.36916102
C       8.21138443      1.62853727     -0.50208071
C       9.13154401      1.53095241      0.70435667
H      -8.77201243      3.15260031      0.34105554
H      -8.74477732      2.91627636     -1.41460992
H      -7.45060927      3.83584015     -0.62709756
H      -8.02122598      0.84546104     -0.26835337
H      -6.71715651      1.52967032     -1.24229172
H      -5.70820063      2.55936377      0.79568951
H      -7.05690589      1.98536839      1.77003719
H      -5.19733248      0.52668931      2.15103284
H      -6.43081224     -0.38172423      1.28392263
H      -3.97236183      0.90564970     -0.02377956
H      -5.16569912     -0.10208183     -0.84765999
H      -3.39006533     -1.01689641      1.46517593
H      -4.58231415     -2.02486705      0.64027248
H      -3.35831741     -1.65469984     -1.53169793
H      -2.13470178     -0.72963972     -0.68034584
H      -2.84048352     -3.68007826     -0.25473638
H      -1.44235938     -3.07487543     -1.11584985
H      -2.00348238     -2.85754267      1.88219234
H      -0.81165026     -3.87157100      1.09937259
H      -0.75323523     -0.81085211      1.23498179
H       0.21122168     -1.92304065      2.18098666
H       1.27840665     -2.79276062      0.07337055
H       0.36738631     -1.57407220     -0.86040599
H       4.42024182     -0.12445188      0.55218868
H       3.55009733      1.06330551     -0.47012277
H       5.31436973     -1.22708602     -1.49248594
H       4.39074348     -0.14851499     -2.50917166
H       5.69269164      1.81595019     -1.66142523
H       6.67196653      0.61426681     -2.49548437
H       7.36401188     -0.34359481     -0.26397801
H       6.46067498      0.94002349      0.54435560
H       8.77886754      1.38265043     -1.40717999
H       7.86448856      2.66310593     -0.60725662
H       8.60322020      1.80269703      1.62378993
H       9.52124277      0.51446032      0.81924765
H       9.98216251      2.20979657      0.58813712
