45
COc1ccc2cc(C(C)C(=O)OCCOC(=O)CN)ccc2c1
C       7.62651964     -1.16906658      1.32127561
O       6.81187951     -0.00900302      1.43370302
C       5.60057451     -0.03980315      0.79863819
C       5.09120585     -1.10262620      0.05642779
C       3.83100445     -0.99993724     -0.54312414
C       3.06086989      0.16566031     -0.41041292
C       1.79367477      0.28146657     -1.00745907
C       1.02561217      1.45025454     -0.87069101
C      -0.34431308      1.57283755     -1.51367098
C      -0.25409328      1.55094715     -3.04133766
C      -1.30054746      0.49790605     -1.01348118
O      -1.59359519     -0.52432921     -1.62021518
O      -1.78381663      0.83197017      0.21906068
C      -2.64875174     -0.13894339      0.82466526
C      -4.07887412     -0.00512834      0.31326710
O      -4.90961305     -0.94815811      1.00275768
C      -6.22590663     -0.88768673      0.65462191
O      -6.70708378     -0.10217360     -0.15296894
C      -7.01713155     -1.94212829      1.42421152
N      -8.44829915     -1.90798660      1.06433336
C       1.54666018      2.51243374     -0.12252283
C       2.80510525      2.41010050      0.47553238
C       3.57293461      1.24392086      0.34052266
C       4.83972310      1.12500644      0.93611479
H       7.13721001     -2.04003263      1.76967709
H       8.55053541     -0.98372801      1.87741157
H       7.89870101     -1.36090081      0.27810642
H       5.64460309     -2.02577473     -0.07771208
H       3.45399162     -1.84326394     -1.11806783
H       1.40056783     -0.55453691     -1.58552868
H      -0.79375399      2.53893373     -1.24523623
H       0.14795621      0.60335325     -3.41707934
H      -1.24606060      1.68266335     -3.48781398
H       0.39214764      2.35643003     -3.40725202
H      -2.26529172     -1.15738770      0.68361692
H      -2.62806100      0.03655832      1.90638289
H      -4.43717242      1.01584100      0.49355674
H      -4.11922996     -0.19652865     -0.76510655
H      -6.91556131     -1.74869341      2.49599985
H      -6.61450891     -2.93116849      1.18723654
H      -8.52169944     -2.03166018      0.05160570
H      -8.78944282     -0.95580193      1.21652383
H       0.97933761      3.43205920      0.00488605
H       3.18402015      3.25195424      1.05129427
H       5.24797331      1.94850044      1.51825076
