59
CCCCCC(O)/C=C/C1C(O)CC(=O)C1CCCCCCC(=O)O
C       6.39227980      2.56361528     -1.58755131
C       5.04249993      3.14959474     -1.20307462
C       3.98618273      2.08903053     -0.88198407
C       4.32484055      1.25724134      0.35784573
C       3.17048611      0.35480353      0.81428404
C       2.78678017     -0.73464354     -0.19522241
O       3.90059392     -1.57142834     -0.47846580
C       1.69387246     -1.61462437      0.34225326
C       0.48377510     -1.74250818     -0.22694746
C      -0.61319528     -2.62559915      0.31786699
C      -0.94470070     -3.75890499     -0.67002976
O       0.02366365     -4.79646978     -0.59863190
C      -2.29988521     -4.28102256     -0.22059095
C      -2.93617852     -3.04232271      0.34284654
O      -4.12403196     -2.97329157      0.63730694
C      -1.95459012     -1.89390312      0.50336151
C      -2.14458626     -1.21178292      1.86295822
C      -1.22936447     -0.02333569      2.15657961
C      -1.30769523      1.15747189      1.18298989
C      -2.65146908      1.89665101      1.18135776
C      -3.59135891      1.43842195      0.06471523
C      -4.89510322      2.23515518      0.06840864
C      -5.80012334      1.81043674     -1.05643343
O      -5.50623548      1.13849490     -2.03008265
O      -7.04919684      2.29353824     -0.90758323
H       7.07459990      3.36268193     -1.89486167
H       6.29327770      1.86305366     -2.42270167
H       6.85544513      2.03807512     -0.74731434
H       4.67777741      3.76149288     -2.03676255
H       5.16759091      3.82319495     -0.34737060
H       3.02716544      2.59745943     -0.72346455
H       3.86034576      1.43549985     -1.75266786
H       4.57437847      1.93305286      1.18536417
H       5.21491600      0.64587582      0.17198528
H       2.29414888      0.97387642      1.04494256
H       3.48202240     -0.11646020      1.75619716
H       2.47292271     -0.27965930     -1.14024832
H       4.25736809     -1.88783054      0.36800834
H       1.91878976     -2.16852404      1.25134276
H       0.26557216     -1.19085807     -1.14124894
H      -0.28875330     -3.06868687      1.27051270
H      -0.99975119     -3.39828910     -1.70513469
H       0.88360197     -4.40703323     -0.84380265
H      -2.87748528     -4.67079874     -1.06239692
H      -2.21460192     -5.04261277      0.56002330
H      -2.14015090     -1.20020627     -0.32443475
H      -3.18730250     -0.88872493      1.96920446
H      -1.99983228     -1.95618781      2.65797711
H      -1.46064611      0.34240948      3.16559702
H      -0.19156106     -0.36939740      2.20677411
H      -0.53903461      1.87469447      1.50057123
H      -1.02850453      0.85150112      0.16944998
H      -2.44898462      2.96525305      1.03220133
H      -3.14300939      1.80662918      2.15712578
H      -3.09055724      1.55497039     -0.90460494
H      -3.82712482      0.37541580      0.16961523
H      -5.41875509      2.07179893      1.01700114
H      -4.69011227      3.30488028     -0.04606431
H      -7.53101540      1.94883524     -1.68857705
