28
CC1=CCC(C(C)C)CC1
C       3.75320369     -0.04063532     -0.66384637
C       2.28044059      0.06958172     -0.39514063
C       1.46727956     -1.00123726     -0.41738918
C      -0.01776877     -0.92974112     -0.19276658
C      -0.57748079      0.50469923     -0.27959130
C      -2.06089279      0.63769115      0.16092687
C      -2.31622012      0.31248578      1.63522705
C      -2.98798567     -0.20725778     -0.71908408
C       0.34728020      1.46636755      0.48509917
C       1.76410616      1.45577424     -0.09915743
H       4.02928038      0.58155974     -1.52128870
H       4.32473767      0.29379110      0.20792305
H       4.05546697     -1.06924800     -0.88683464
H       1.87455358     -1.99069366     -0.61347312
H      -0.50751777     -1.55572683     -0.94753104
H      -0.22763147     -1.37793298      0.78407348
H      -0.53977311      0.80430181     -1.33827112
H      -2.34915456      1.68701664      0.00920309
H      -3.37063811      0.47761413      1.88413819
H      -1.72705974      0.95396443      2.29664734
H      -2.08495008     -0.73056186      1.87051421
H      -4.03726390      0.01256067     -0.49351307
H      -2.83335575     -1.27919663     -0.55960353
H      -2.82509698      0.00960435     -1.77992939
H      -0.04750291      2.48862413      0.45118449
H       0.40129368      1.17865476      1.54243650
H       2.43309921      1.95984901      0.60856917
H       1.77955083      2.03854342     -1.02852242
