44
COC1(OC)CCCCCCCCCCC1
C      -4.07623952      0.24105298     -0.89316700
O      -2.92541428      0.85564706     -0.33495831
C      -1.93420522     -0.03716616      0.19732289
O      -2.47386892     -0.84882719      1.25354164
C      -2.97401648     -0.14457823      2.37944701
C      -0.76371655      0.86051048      0.70529019
C      -0.26915680      1.90167381     -0.31252297
C       0.98389739      2.67437243      0.13002855
C       2.30710850      1.99286472     -0.24516803
C       2.83354002      1.02314316      0.81627859
C       3.55322637     -0.20390537      0.23843096
C       2.63533988     -1.41806902      0.03893374
C       1.78465516     -1.36058481     -1.23305194
C       0.69707094     -2.44061322     -1.27256196
C      -0.49104129     -2.14105259     -0.34941400
C      -1.41934382     -1.03102214     -0.88548500
H      -4.84399903      1.01117396     -1.01122350
H      -3.85497510     -0.15660017     -1.88712887
H      -4.47743260     -0.54412119     -0.24648049
H      -3.58629042     -0.83749096      2.96379715
H      -3.60077984      0.70315071      2.08929978
H      -2.15267199      0.18732457      3.01994452
H      -1.08987463      1.42936027      1.58386031
H       0.05164237      0.22757096      1.05747550
H      -1.07224232      2.63673185     -0.45415527
H      -0.09533085      1.45495604     -1.29506596
H       0.94719544      2.90947466      1.19987668
H       0.96341634      3.63748310     -0.39724550
H       3.06481447      2.77889596     -0.36749631
H       2.22393331      1.52583196     -1.23047857
H       3.55649266      1.57796323      1.42965943
H       2.05288762      0.70817817      1.51305441
H       4.08489466      0.04409076     -0.68727818
H       4.31992665     -0.50181342      0.96565943
H       3.26329872     -2.31668397     -0.01782876
H       2.01048001     -1.54315372      0.92912932
H       2.44663285     -1.49531875     -2.09731164
H       1.31790167     -0.38426284     -1.34953164
H       1.13604629     -3.40609067     -0.99338818
H       0.33283442     -2.54748755     -2.30158860
H      -0.13632690     -1.92408162      0.66145991
H      -1.08608974     -3.05937861     -0.25797195
H      -2.27414944     -1.55459650     -1.33142466
H      -0.97007003     -0.48455213     -1.72056273
