35
CCCCCCCCCC(=O)OC
C       6.47549296      0.21012191      0.17572971
C       5.19061239     -0.41229317     -0.34694437
C       3.95709317      0.26774750      0.24650856
C       2.66680494     -0.36126285     -0.28176342
C       1.43231801      0.31921961      0.31207932
C       0.14205372     -0.30983730     -0.21624094
C      -1.09241646      0.37063207      0.37758973
C      -2.38231107     -0.25818189     -0.15052051
C      -3.61550966      0.42111029      0.44228650
C      -4.89836149     -0.19019578     -0.07087340
O      -4.97771665     -1.11671812     -0.86447536
O      -5.96154311      0.45399982      0.49040024
C      -7.23094289     -0.04808583      0.07075909
H       7.34466743     -0.29121518     -0.26143052
H       6.54177144      0.11735447      1.26446180
H       6.53033497      1.27240423     -0.08289214
H       5.18216016     -1.48032761     -0.10009435
H       5.17078513     -0.33164425     -1.44001655
H       3.98395302      0.18785340      1.34011129
H       3.97257369      1.33647781      0.00024188
H       2.65142726     -1.42991857     -0.03529782
H       2.64004535     -0.28115536     -1.37532346
H       1.45906037      0.23910352      1.40563354
H       1.44768221      1.38786985      0.06561468
H       0.12668642     -1.37849010      0.03021957
H       0.11530894     -0.22972491     -1.30979671
H      -1.06568622      0.29047731      1.47113991
H      -1.07706610      1.43927086      0.13108084
H      -2.40952571     -0.18253263     -1.24479447
H      -2.39817813     -1.32822796      0.09165448
H      -3.60315861      0.32303971      1.53356324
H      -3.61466397      1.48464297      0.17855779
H      -8.00834919      0.53248736      0.57507047
H      -7.35351120      0.07437540     -1.00995208
H      -7.34189112     -1.09837657      0.35805294
