36
Cc1cc2nc3ccc(N(C)C)cc3[s+]c2cc1N.[Cl-]
C       5.55442595      1.40510049      0.61271224
C       4.30473897      0.60051557      0.38146270
C       3.05099382      1.21484245      0.58337428
C       1.84690476      0.56779428      0.36137197
N       0.72601229      1.27585839      0.59949149
C      -0.51185694      0.77708956      0.41247594
C      -1.57088048      1.61085100      0.70541260
C      -2.91055175      1.21190088      0.55029867
C      -3.26276128     -0.05867715      0.07655369
N      -4.59422752     -0.46135026     -0.06237881
C      -5.64972330      0.55085739     -0.04271276
C      -4.89697194     -1.67271021     -0.82424347
C      -2.18579484     -0.91186659     -0.20541638
C      -0.84292980     -0.50877775     -0.04879128
S       0.43523634     -1.69773878     -0.45928186
C       1.91888510     -0.75933839     -0.10138342
C       3.15558397     -1.39311096     -0.30455575
C       4.35633401     -0.74156726     -0.01541501
N       5.56679934     -1.36910389     -0.33710967
Cl      0.00000000      0.00000000      0.00000000
H       6.17409875      1.41537853     -0.28980593
H       6.12698012      0.98286433      1.44474305
H       5.32425213      2.44632867      0.86232167
H       3.01414865      2.25087952      0.91833224
H      -1.36360826      2.61371637      1.07371121
H      -3.66817960      1.94132919      0.82078058
H      -5.67902820      1.07442108      0.91884925
H      -6.63930279      0.09664435     -0.16658762
H      -5.51496668      1.27547258     -0.85334771
H      -4.54694887     -1.58459375     -1.85868196
H      -5.97551974     -1.86420632     -0.85546565
H      -4.44949476     -2.55663951     -0.35729106
H      -2.36618135     -1.92369875     -0.55559632
H       3.17830287     -2.40969397     -0.68995065
H       6.37011079     -1.01512159      0.17165050
H       5.52512025     -2.38364948     -0.32043454
