43
CCCCOP(=O)(CCCC)OCCCC
C      -4.96815336     -2.21750663      1.17494401
C      -4.10460815     -1.84201283     -0.01851340
C      -2.71830663     -1.37788967      0.41845742
C      -1.85036500     -0.99884641     -0.77383283
O      -0.58317976     -0.58057611     -0.29244719
P       0.43915720      0.05952064     -1.36435184
O       0.53911914     -0.71016012     -2.64581076
C      -0.07459066      1.76686230     -1.54472182
C      -0.22766465      2.52103429     -0.22716273
C      -0.56157342      4.00214785     -0.40590459
C      -1.92693433      4.24377553     -1.03072891
O       1.81901193      0.14249416     -0.53369543
C       2.50071653     -1.08065566     -0.30512709
C       3.69232806     -0.80784068      0.60298773
C       4.48084477     -2.08099899      0.89588697
C       5.66874102     -1.80410274      1.80335000
H      -4.51444702     -3.03369446      1.74628961
H      -5.10391947     -1.36272241      1.84523526
H      -5.95663583     -2.54607238      0.83919419
H      -4.60187169     -1.04681076     -0.58603270
H      -4.01471055     -2.70820890     -0.68428147
H      -2.21814555     -2.16517419      0.99641906
H      -2.80139785     -0.51727128      1.09416991
H      -1.71165118     -1.85854021     -1.43754853
H      -2.31445959     -0.18563949     -1.34115757
H      -1.02265593      1.77198749     -2.09170724
H       0.66282809      2.27485072     -2.17625066
H       0.70812912      2.44147042      0.33833709
H      -0.99787138      2.03822660      0.38547529
H      -0.53932210      4.48433456      0.57867199
H       0.20970713      4.48859014     -1.01423939
H      -2.71451640      3.74014276     -0.46139066
H      -1.96411500      3.88719116     -2.06413320
H      -2.15001797      5.31548718     -1.04248255
H       1.81787384     -1.79709803      0.16365255
H       2.83503438     -1.48741109     -1.26523125
H       4.34177824     -0.05773056      0.13452963
H       3.33935680     -0.35589451      1.53847420
H       4.83940791     -2.52110290     -0.04189516
H       3.82855566     -2.82146607      1.37333900
H       6.21947316     -2.72930342      1.99985317
H       5.34130367     -1.39319617      2.76370986
H       6.35774683     -1.09018917      1.34088960
