15
O=c1cnc2ncncc2[nH]1
O       3.34758302      0.36293430     -0.65175390
C       2.19892063      0.07653821     -0.35689584
C       1.89169134     -1.26575541      0.27888030
N       0.70365723     -1.65529079      0.62490544
C      -0.36055651     -0.76796955      0.39091112
N      -1.56513049     -1.22168544      0.76760889
C      -2.59152099     -0.38787997      0.55159641
N      -2.51976415      0.83824468      0.00154458
C      -1.28925962      1.24990522     -0.36045888
C      -0.16415175      0.47981351     -0.18699181
N       1.11812098      0.89828671     -0.55960466
H       2.76815918     -1.91362718      0.43511674
H      -3.57552761     -0.73529102      0.84909897
H      -1.24744038      2.24000953     -0.80225457
H       1.28521914      1.80176720     -0.98170279
