31
COC(=O)C1(S(=O)(=O)c2ccc(C)cc2)CC1
C      -4.12743611      0.17575217     -0.54435391
O      -3.28514369     -0.59472527      0.31311957
C      -2.02115137     -0.76334750     -0.15797789
O      -1.59637316     -0.34985085     -1.22682135
C      -1.18916390     -1.54252532      0.75844409
S      -0.13176328     -0.54100376      1.82817853
O      -0.99790060      0.40534919      2.50574357
O       0.72161389     -1.43134012      2.59567717
C       0.92064035      0.36924786      0.72689694
C       2.08058602     -0.23327072      0.23406652
C       2.92141724      0.48718312     -0.61554172
C       2.60878085      1.80537741     -0.97430675
C       3.53189560      2.58825578     -1.86173347
C       1.45814883      2.40655082     -0.44589239
C       0.61306808      1.69285769      0.40545956
C      -1.68226701     -2.82094636      1.40157256
C      -0.60709869     -2.87765764      0.35080261
H      -3.71620434      1.18041221     -0.68427807
H      -5.10656382      0.26578362     -0.06593047
H      -4.25649599     -0.32834764     -1.50717394
H       2.34441887     -1.25102258      0.51167107
H       3.82668787      0.01667369     -0.99406776
H       4.05049589      1.92833485     -2.56512505
H       2.97465111      3.32085595     -2.45513165
H       4.27577085      3.11479111     -1.25601602
H       1.21495132      3.43772432     -0.69460653
H      -0.27370986      2.17719090      0.80785887
H      -1.40494740     -3.03569269      2.42848124
H      -2.67000086     -3.18288196      1.13776353
H       0.39358634     -3.14856500      0.66861546
H      -0.87049306     -3.27116331     -0.62539432
