23
O=C(O)c1cccc2cccc([N+](=O)[O-])c12
O      -3.08026387     -1.74627826      0.68447851
C      -2.10204699     -1.42826239      0.03815048
O      -1.61654602     -2.18870899     -0.95657920
C      -1.38379298     -0.13787414      0.10440755
C      -2.23959471      0.97678076      0.13306635
C      -1.71915657      2.25757151      0.05520942
C      -0.34519008      2.42814034     -0.06729011
C       0.53529335      1.33324043     -0.07334993
C       1.91185664      1.59479127     -0.20617432
C       2.85803155      0.57428812     -0.19602906
C       2.44181215     -0.73303292     -0.01663128
C       1.06933557     -1.00781298      0.12274786
N       0.75957755     -2.38417397      0.47660006
O       1.17798698     -3.27423534     -0.27762523
O       0.15329964     -2.56956691      1.54025620
C       0.04884724      0.00177312      0.05587208
H      -2.17222771     -2.99810371     -0.93931918
H      -3.31884516      0.84035324      0.18988255
H      -2.38062114      3.12029251      0.06661116
H       0.03887439      3.44453783     -0.15188479
H       2.26657047      2.61943909     -0.32009391
H       3.91513678      0.80668810     -0.30081598
H       3.18166293     -1.52984670      0.03851077
