24
COc1ccc([N+](=O)[O-])cc1OC(C)=O
C      -2.07724234     -2.40595883      0.02128798
O      -1.63262539     -1.07635336      0.25965187
C      -0.28278971     -0.85410253      0.21884173
C       0.69887661     -1.84342171      0.12595033
C       2.05634763     -1.49385502      0.11332706
C       2.43453687     -0.14564874      0.20248803
N       3.85757125      0.21271891      0.19977459
O       4.68197424     -0.70406761      0.07449621
O       4.15125684      1.40954841      0.32942419
C       1.46912494      0.85854082      0.30040098
C       0.12405834      0.48830824      0.29085336
O      -0.83424427      1.50065192      0.40955015
C      -1.35174437      1.87491010     -0.82406417
C      -2.45502987      2.86644815     -0.60350613
O      -0.97278554      1.49993142     -1.92627313
H      -1.73842602     -2.76932743     -0.95465133
H      -1.75821646     -3.07604104      0.82616613
H      -3.17139568     -2.39550615      0.01122930
H       0.44471293     -2.89729077      0.06665092
H       2.80231179     -2.28345806      0.03826797
H       1.73953899      1.90824579      0.37246963
H      -3.22405574      2.42908588      0.03836515
H      -2.05026822      3.77700984     -0.15514418
H      -2.91148684      3.11963179     -1.56468211
