33
Nc1ccc(S(=O)(=O)Nc2cnc3ccccc3n2)cc1
N       3.30553816      2.50695326     -1.01415221
C       2.94971189      1.23513904     -0.55217740
C       2.42460997      1.07640642      0.73451246
C       1.95367041     -0.16582771      1.16720296
C       1.95616102     -1.24562205      0.28200397
S       1.35800753     -2.83436228      0.81285673
O       2.12462451     -3.84113966      0.11011147
O       1.28155973     -2.82764529      2.25845238
N      -0.20436113     -2.89476639      0.18922246
C      -1.06395725     -1.84551116      0.57017202
C      -1.49531882     -1.60793246      1.86375621
N      -2.28257896     -0.55142721      2.17195395
C      -2.62580316      0.25545850      1.14822782
C      -3.42758628      1.36404315      1.38811904
C      -3.80279109      2.22564831      0.35652563
C      -3.36856068      1.97489959     -0.93865891
C      -2.56334683      0.86356166     -1.19344949
C      -2.18310432     -0.00322243     -0.17652124
N      -1.40208211     -1.06358512     -0.46788303
C       2.43911013     -1.09548399     -1.01950533
C       2.90926050      0.15233670     -1.43683749
H       3.95041146      2.49533892     -1.79834330
H       3.60567147      3.14218679     -0.28092682
H       2.38186593      1.92293957      1.41553981
H       1.57533090     -0.27078881      2.18145868
H      -0.19564660     -3.01338946     -0.82186372
H      -1.22463882     -2.25444849      2.69071714
H      -3.76613017      1.55991845      2.40285484
H      -4.43019370      3.08798997      0.56835922
H      -3.65168916      2.64001402     -1.75087698
H      -2.22180610      0.67109036     -2.20776110
H       2.44419884     -1.93146393     -1.71464177
H       3.24986274      0.27269174     -2.46228787
