15
Fc1ccccc1CCl
F       0.51396691      2.31736126     -0.58823205
C      -0.07660171      1.14112989     -0.33284157
C      -1.46444588      1.05994432     -0.40792686
C      -2.09992080     -0.15315324     -0.15094742
C      -1.34236023     -1.27651970      0.18040650
C       0.05044640     -1.18839436      0.25354561
C       0.70097148      0.02745927     -0.00682657
C       2.19329294      0.14014179      0.07513084
Cl      2.72895754      0.17498290      1.76871485
H      -2.04003344      1.94375609     -0.66421745
H      -3.18337245     -0.22285101     -0.20487371
H      -1.83719503     -2.22277598      0.38728465
H       0.62572716     -2.07234861      0.52270117
H       2.66796350     -0.71514198     -0.41717301
H       2.56260360      1.04640937     -0.41474499
