35
CC(C)(C)OOC(C)(C)c1ccccc1
C       2.47124924      0.72225137      2.06688268
C       2.62210026      0.29140315      0.60420526
C       3.95068789      0.82266800      0.05459780
C       2.59323744     -1.23422721      0.46739540
O       1.59732277      0.89627296     -0.20252181
O       0.30834280      0.41220092      0.28985432
C      -0.62098277      0.38780856     -0.81640705
C      -0.81083450      1.82613806     -1.32793182
C      -0.07834439     -0.53211204     -1.92366900
C      -1.96475239     -0.16573427     -0.30801615
C      -3.07481708     -0.26889728     -1.16911203
C      -4.29775821     -0.77330506     -0.71851987
C      -4.43778977     -1.18652774      0.60246714
C      -3.35563086     -1.09595479      1.47237084
C      -2.13208192     -0.59157489      1.02213023
H       3.30605900      0.36388787      2.67839991
H       2.42260890      1.81403868      2.14756314
H       1.54462752      0.33525470      2.50485868
H       3.98531408      1.91701623      0.10859355
H       4.80779006      0.42162770      0.60556486
H       4.06632117      0.56202524     -1.00391915
H       1.66309483     -1.65526947      0.86434747
H       2.64744908     -1.53170332     -0.58572320
H       3.42734752     -1.69983268      1.00294469
H       0.13377588      2.25501213     -1.68025821
H      -1.52349834      1.88532553     -2.15693480
H      -1.16837769      2.47928962     -0.52291872
H       0.09191215     -1.54423193     -1.53794973
H       0.88424684     -0.17726168     -2.30780900
H      -0.76067322     -0.60448624     -2.77705665
H      -3.00002346      0.04346569     -2.20841893
H      -5.14051992     -0.84279624     -1.40135155
H      -5.38823108     -1.57843562      0.95398305
H      -3.46003049     -1.41731055      2.50544133
H      -1.30914133     -0.53602538      1.73177047
