22
O=C(O)c1cc2ccccc2cc1O
O       4.00470921     -0.24597403     -0.60978299
C       3.12950627      0.28520122      0.05370302
O       3.41486965      1.17517028      1.01811661
C       1.68318805      0.02457886     -0.11417863
C       0.73131560      0.67273310      0.68567127
C      -0.64089874      0.41878763      0.51897656
C      -1.60443486      1.06105687      1.31327077
C      -2.96412911      0.79940980      1.13697103
C      -3.37824863     -0.10678854      0.16535220
C      -2.43392298     -0.75398648     -0.63280182
C      -1.06261737     -0.50229692     -0.46853682
C      -0.10288563     -1.14607392     -1.26418659
C       1.25520723     -0.88486013     -1.08823275
O       2.11001164     -1.56535780     -1.91584515
H       4.39283345      1.24337777      1.01166492
H       1.05512852      1.38123617      1.44532024
H      -1.30271878      1.77303227      2.07863262
H      -3.69934192      1.30372656      1.75886337
H      -4.43688890     -0.31125095      0.02725736
H      -2.77728873     -1.45906632     -1.38700499
H      -0.40622770     -1.85763612     -2.02895442
H       3.03283372     -1.30501934     -1.70427581
