18
COC(C)C(C)Cl
C      -1.85652434     -1.31922513     -0.18279883
O      -0.50784728     -0.96897965     -0.46760137
C      -0.17374425      0.37632679     -0.08271701
C      -0.58649290      1.32486599     -1.21099172
C       1.34675795      0.43193502      0.19171060
C       1.77915724     -0.59158139      1.23997207
Cl      1.84973899      2.06074848      0.75143601
H      -2.01084514     -2.35710579     -0.49030011
H      -2.55532745     -0.68847496     -0.73788971
H      -2.05153888     -1.24476452      0.89129175
H      -0.71329542      0.63879492      0.83689670
H      -1.65800768      1.24810380     -1.41960659
H      -0.06899755      1.06700059     -2.14168500
H      -0.37381870      2.36990366     -0.96998584
H       1.89800656      0.22764363     -0.73334601
H       1.57326911     -1.61296416      0.90366061
H       2.85561353     -0.52500875      1.43303008
H       1.25389622     -0.43721854      2.18892438
