13
C=C(C)C(N)=O
C       0.01793929     -1.09846103      1.06816781
C       0.31811449     -0.14999779      0.16514660
C       1.64981866     -0.05941797     -0.51474245
C      -0.65136449      0.92703668     -0.18557282
N      -1.96193397      0.56574774     -0.19782071
O      -0.29321897      2.05065703     -0.51178210
H      -0.93071794     -1.12221879      1.59412318
H       0.74008519     -1.86480482      1.33328058
H       2.30439739     -0.89392713     -0.24143219
H       1.52504134     -0.07955597     -1.60246342
H       2.16226097      0.86824112     -0.23960132
H      -2.62156299      1.25276106     -0.53670041
H      -2.25885896     -0.39606013     -0.13060276
