55
C1CCC([Sn](C2CCCCC2)C2CCCCC2)CC1.O
C      -3.86666544     -3.04420806      0.05355011
C      -3.67105183     -1.84395436      0.93963726
C      -2.76774890     -0.82716482      0.22997815
C      -1.38925869     -1.40525131      0.21773672
Sn      0.03243991     -0.25089281     -0.82566697
C      -0.12239141      1.82625150     -0.49182608
C      -1.19474064      2.49351211     -1.33486590
C      -0.85594318      3.97974007     -1.38873655
C      -0.50589830      4.51976166     -0.01763821
C      -1.01383367      3.55649765      1.01583942
C      -0.33111267      2.21121961      0.93655799
C       1.99118386     -0.94861111     -0.35480617
C       2.23909168     -0.90825527      1.13529236
C       3.52974617     -1.67366092      1.38701629
C       4.66114344     -1.02289020      0.64356863
C       4.38124229     -0.88450913     -0.82965842
C       3.06389838     -0.16453450     -1.07532625
C      -1.40141072     -2.81385794     -0.36637210
C      -2.75326283     -3.13861140     -0.95751332
O      -0.00000896      0.36483276     -0.00000000
H      -3.84045714     -3.99832630      0.65216894
H      -4.82000398     -2.97114900     -0.50707698
H      -4.63309934     -1.41366082      1.22639724
H      -3.16666880     -2.21664005      1.87219369
H      -2.78500210      0.12286569      0.76342604
H      -3.14274032     -0.72420031     -0.80256713
H      -1.06308543     -1.51355603      1.28682025
H       0.84755134      2.30525916     -0.81702969
H      -2.17587568      2.40129024     -0.84394667
H      -1.18710985      2.12218044     -2.37287320
H      -0.04275380      4.17124004     -2.11896918
H      -1.74996468      4.51115732     -1.77632573
H       0.57375734      4.72062418      0.05072685
H      -1.01897964      5.48962934      0.15793371
H      -0.86586997      4.03838590      2.01010367
H      -2.11659105      3.48504170      0.88354236
H       0.67228340      2.34918635      1.43680010
H      -0.94951104      1.48162446      1.50126320
H       2.09031272     -2.00831377     -0.67836715
H       2.41742494      0.13167848      1.50422437
H       1.39795122     -1.37827280      1.65798330
H       3.75799030     -1.57483648      2.47492885
H       3.40712303     -2.74700146      1.13467702
H       5.58481525     -1.60478468      0.75785009
H       4.82639024     -0.02931133      1.07767077
H       4.23815835     -1.91499048     -1.25879564
H       5.23365000     -0.36006608     -1.29300760
H       3.08977788      0.88701118     -0.75743054
H       2.83923973     -0.27007190     -2.17128550
H      -1.15928344     -3.58041558      0.39119845
H      -0.66179340     -2.92363292     -1.18746550
H      -2.70087170     -4.17104664     -1.34965309
H      -2.92219183     -2.47747861     -1.82188222
H      -0.82842311     -0.18243283     -0.00000000
H       0.82843207     -0.18239993      0.00000000
