23
O=C(O)C(=O)[C@@H](O)[C@H](O)[C@@H](O)CO
O       3.59557541      0.89742364     -0.40912689
C       2.48323882      0.79611961     -0.88473437
O       2.20401129      0.11262823     -1.99897836
C       1.24754660      1.45674087     -0.29122044
O       0.75823398      2.44759723     -0.82509033
C       0.74107736      0.86966619      1.01490254
O      -0.33017939      1.65756113      1.54809919
C       0.27079545     -0.57960075      0.85656569
O       1.39705603     -1.43016758      0.58803824
C      -0.79358251     -0.83088769     -0.22715514
O      -1.03869621     -2.25692540     -0.24899822
C      -2.12606486     -0.11494517     -0.00029338
O      -3.06605950     -0.62707162     -0.95319807
H       3.06170019     -0.27098153     -2.27652579
H       1.56765450      0.92383935      1.73287530
H      -0.10881092      2.59304194      1.36704188
H      -0.13668311     -0.92027956      1.81741128
H       0.99587587     -2.30047471      0.37014726
H      -0.40540510     -0.59722901     -1.22427852
H      -1.86678560     -2.34691241     -0.76843966
H      -2.03933844      0.96377348     -0.15081529
H      -2.52341934     -0.32544964      0.99736420
H      -3.88774050     -0.11746660     -0.83190058
