57
O=C1CCc2ccc(OCCCCN3CCN(c4cccc(Cl)c4Cl)CC3)cc2N1
O       9.07677032      2.13128209      0.35283205
C       8.26011935      1.28578819     -0.00570275
C       8.67258171      0.00538384     -0.69492036
C       7.74084655     -1.14851095     -0.36306085
C       6.30079081     -0.74319594     -0.50324118
C       5.30791783     -1.67843403     -0.80645905
C       3.96205609     -1.29542343     -0.83892144
C       3.59627285      0.01975561     -0.55093656
O       2.32637060      0.52391441     -0.53176373
C       1.23461046     -0.32669478     -0.88282521
C       0.72393375     -1.12234505      0.31933918
C       0.40023715     -0.27019110      1.55421708
C      -0.61098312      0.86053129      1.31615846
N      -1.86241035      0.41495700      0.68414420
C      -2.66468311      1.59081172      0.25977459
C      -4.01635709      1.19810682     -0.38494421
N      -4.78459401      0.35537203      0.55189293
C      -6.12773916      0.13505973      0.20047220
C      -7.06970650      0.72681546      1.06671803
C      -8.44271605      0.60527339      0.85948624
C      -8.91022149     -0.11867395     -0.22979395
C      -8.00496114     -0.71972572     -1.10920104
Cl     -8.68379272     -1.60276449     -2.43793464
C      -6.61517420     -0.60060297     -0.90594961
Cl     -5.53043841     -1.36682743     -2.02837096
C      -4.03625726     -0.84282785      0.97828923
C      -2.68093957     -0.41963191      1.59942110
C       4.58924930      0.95145037     -0.23291859
C       5.93107694      0.57340803     -0.21992996
N       6.91430242      1.51270726      0.10583105
H       8.67607546      0.20067406     -1.77429902
H       9.69453420     -0.24855228     -0.39327126
H       7.90456170     -1.47680159      0.67104840
H       7.96807054     -1.99482890     -1.02158963
H       5.57111668     -2.71440236     -1.00827630
H       3.22725360     -2.05679105     -1.07724674
H       0.43748428      0.32842851     -1.25108514
H       1.47640514     -0.97947454     -1.72913399
H      -0.15850053     -1.69799294      0.01719456
H       1.48128622     -1.85517978      0.62042715
H       0.03849211     -0.93234860      2.34990547
H       1.32726478      0.17353733      1.93869235
H      -0.12789357      1.60878592      0.67526992
H      -0.81501753      1.36517107      2.26959471
H      -2.85828699      2.24445114      1.12124418
H      -2.09646376      2.17369127     -0.47530927
H      -4.57406495      2.11438639     -0.61423120
H      -3.81879881      0.67809964     -1.32806994
H      -6.71223011      1.29607741      1.92422031
H      -9.14092769      1.07575399      1.54685862
H      -9.98134366     -0.21302679     -0.39118001
H      -3.84130226     -1.51803629      0.13868809
H      -4.60852141     -1.39724275      1.73224421
H      -2.13953556     -1.33592954      1.85799128
H      -2.87413915      0.12508605      2.53334424
H       4.30024758      1.97385018     -0.00580086
H       6.64807178      2.42784681      0.44590567
