18
O=C1CC2CCC1C2
O       1.72775342     -1.53117904      1.46256568
C       1.12144223     -0.79668215      0.69896678
C       1.37588847      0.68380825      0.52116094
C       0.22155007      1.00058781     -0.45464060
C      -1.13121985      0.87563915      0.27757159
C      -1.29232783     -0.64619023      0.47649055
C      -0.03434006     -1.21092139     -0.18940893
C       0.19586840     -0.24199198     -1.34878970
H       1.28984969      1.22144957      1.46743893
H       2.35318550      0.83471301      0.05551021
H       0.34709654      1.95118068     -0.97699508
H      -1.14485754      1.41766648      1.22843332
H      -1.94622828      1.25882568     -0.34697467
H      -2.19876944     -0.99901765     -0.02718585
H      -1.35970299     -0.90452368      1.53856714
H      -0.04279832     -2.27084553     -0.43975125
H      -0.62699923     -0.23596044     -2.07136956
H       1.14460924     -0.40655853     -1.87158948
