19
CCOc1ccccc1
C       1.49656753      1.18825549      2.76345369
C       0.93738562      0.18956916      1.76597438
O       0.38567495      0.92141149      0.67327880
C      -0.17384904      0.19561391     -0.34210536
C      -0.25605498     -1.19593529     -0.41008251
C      -0.85794596     -1.81089246     -1.51282940
C      -1.37914728     -1.03935490     -2.55015580
C      -1.29971443      0.34946585     -2.48726550
C      -0.69881182      0.96203193     -1.38624220
H       1.93371063      0.67576979      3.62498249
H       2.26547450      1.81162862      2.29507733
H       0.70955501      1.86348228      3.11540290
H       0.15946603     -0.40738097      2.25587538
H       1.74860058     -0.46034064      1.41803917
H       0.13699909     -1.83176533      0.37561063
H      -0.91949491     -2.89513075     -1.56104668
H      -1.84621099     -1.52001118     -3.40566378
H      -1.70390426      0.95705044     -3.29229456
H      -0.63830028      2.04653256     -1.34000898
