19
Cc1ccc(N)c([N+](=O)[O-])c1
C       2.91141474      0.25897963     -0.25038280
C       1.43262725      0.00695393     -0.23185246
C       0.89411088     -1.11048229     -0.87585881
C      -0.48157472     -1.36852662     -0.83039176
C      -1.36694518     -0.50636097     -0.16880096
N      -2.70998422     -0.90714410     -0.05151759
C      -0.80413368      0.57795391      0.53126629
N      -1.64815111      1.48735980      1.30758874
O      -2.81628306      1.66574310      0.92528891
O      -1.13777604      2.04662927      2.29009451
C       0.57775287      0.84350759      0.49229470
H       3.38770649     -0.24526951      0.59600926
H       3.12498628      1.33134882     -0.19035886
H       3.35860751     -0.10943761     -1.17962360
H       1.54366386     -1.80247573     -1.40925361
H      -0.85780279     -2.26593541     -1.31767532
H      -3.05138420     -1.46524952     -0.82865122
H      -3.34686542     -0.13418137      0.16251849
H       0.99003054      1.69658706      1.02930611
