21
O=NN1CCCCCC1
O       3.40146720     -0.04351338      0.47087907
N       2.59231591     -0.97014311      0.34961361
N       1.36262276     -0.51320108      0.25402369
C       0.36744167     -1.54427917      0.56911923
C      -1.10795061     -1.16611914      0.39039325
C      -1.45582500      0.25511068      0.82409341
C      -1.20213909      1.27514633     -0.28377303
C       0.26418525      1.50086979     -0.64260366
C       1.06722833      0.23878447     -0.97360920
H       0.54708222     -2.45104797     -0.02684798
H       0.50187923     -1.83745669      1.62026108
H      -1.70388840     -1.86904947      0.98662640
H      -1.41080271     -1.32476094     -0.65211380
H      -2.52655842      0.28589875      1.06186896
H      -0.92293436      0.53166086      1.74110120
H      -1.74844854      0.97314099     -1.18637999
H      -1.63137818      2.23725604      0.02247503
H       0.75655022      2.04540260      0.17398722
H       0.29867323      2.17029116     -1.51169673
H       0.55928884     -0.37723621     -1.72687748
H       1.99119045      0.58324548     -1.46054027
