14
Oc1ccc(Cl)c(O)c1
O       2.69134081     -0.46453483     -0.17496749
C       1.36416643     -0.15460902     -0.13582724
C       0.95814770      1.02466821     -0.75616662
C      -0.39048773      1.38704279     -0.74405313
C      -1.31897002      0.56273910     -0.10962721
Cl     -2.98373994      1.01003863     -0.09466200
C      -0.89744258     -0.61823184      0.50913074
O      -1.77306795     -1.45748244      1.14351640
C       0.44533645     -0.98419281      0.50007899
H       2.82900141     -1.30551462      0.29257813
H       1.69135769      1.65897577     -1.24746546
H      -0.70515456      2.30714074     -1.22840373
H      -2.66104834     -1.06142776      1.05968441
H       0.75056063     -1.90461192      0.98618422
