7
CNCl
C      -0.62196572     -0.09163924     -0.04965964
N       0.74423105      0.31964268     -0.33076051
Cl      1.92457757     -0.87170009      0.21503740
H      -0.78993690     -0.20900587      1.02577018
H      -0.86111456     -1.03428737     -0.55235383
H      -1.31787698      0.66694002     -0.42075132
H       0.92208554      1.22004987      0.11271773
