50
CN(C)Cc1ccc(C(=O)OCCOCn2cnc3c(=O)[nH]c(N)nc32)cc1
C      -4.91999545      1.46754126     -0.56483289
N      -4.08506851      2.66714236     -0.64365345
C      -4.85120085      3.83542871     -0.20117981
C      -2.87067257      2.52529758      0.18287070
C      -1.89879099      1.49964552     -0.36310758
C      -1.16822488      1.76023500     -1.53165108
C      -0.26411940      0.81636928     -2.02760619
C      -0.09563466     -0.40912053     -1.37156222
C       0.91823517     -1.35923788     -1.89691233
O       1.81433622     -1.03179314     -2.66006356
O       0.70487338     -2.60305315     -1.40323138
C       1.70134656     -3.58600573     -1.73817369
C       2.88069091     -3.47342084     -0.77349828
O       2.46974393     -3.91919158      0.52415445
C       3.14527380     -3.24178662      1.57953624
N       2.29099799     -2.18108264      2.07246396
C       1.25554362     -2.32703011      2.96097321
N       0.66063093     -1.17931340      3.21929527
C       1.33843963     -0.26467344      2.45288512
C       1.11961194      1.15491918      2.25997805
O       0.27538089      1.83476433      2.83565458
N       1.98624588      1.69355167      1.31797484
C       2.97546046      0.98263724      0.66771152
N       3.73043320      1.67494069     -0.22450041
N       3.20674212     -0.28953913      0.85919807
C       2.35389618     -0.86079679      1.74020770
C      -0.84057274     -0.68424445     -0.21849831
C      -1.72685232      0.26935710      0.28748261
H      -5.84376024      1.59873044     -1.14036397
H      -5.19236630      1.22284796      0.46856650
H      -4.41279641      0.60292144     -1.00454689
H      -5.75640923      3.95091560     -0.80427636
H      -5.14742154      3.76284807      0.85227603
H      -4.26989469      4.75315123     -0.34116348
H      -3.12852928      2.28570369      1.22358358
H      -2.33129178      3.48398014      0.21791311
H      -1.31033668      2.70126184     -2.05871532
H       0.30166174      1.03617643     -2.93184190
H       1.21845497     -4.56620644     -1.64490192
H       2.02489411     -3.46621061     -2.78086099
H       3.69776582     -4.12204269     -1.10311113
H       3.24173149     -2.44069692     -0.74151110
H       4.11900011     -2.83970198      1.28225127
H       3.29814979     -3.95435226      2.39932298
H       0.97610689     -3.28714677      3.37557202
H       1.89088933      2.68183931      1.15671927
H       4.27620260      1.04217221     -0.80764020
H       3.23243981      2.35527036     -0.78686517
H      -0.71761621     -1.62215625      0.31888084
H      -2.27362470      0.04915470      1.20353337
