49
CCCNC(=O)c1nnc2c(-c3cc(OC)ccc3OC)c(F)ccc2c1N
C      -5.12656171      1.49699054      2.57783686
C      -5.84225676      1.36130404      1.24138599
C      -5.13401630      2.11209660      0.11559948
N      -3.82810993      1.56638009     -0.17973729
C      -3.64525470      0.45512775     -0.98159937
O      -4.56511853     -0.12013872     -1.55746718
C      -2.22992148     -0.02952376     -1.08480179
N      -1.36413933      0.57680166     -0.24402909
N      -0.05490626      0.18215151     -0.23007746
C       0.40857956     -0.77950239     -1.05312660
C       1.76964808     -1.13561496     -1.03514689
C       2.71016025     -0.50955616     -0.08679747
C       3.52688070      0.55260897     -0.51706657
C       4.42714175      1.17586270      0.34935620
O       5.15082541      2.19185771     -0.21070144
C       6.07472818      2.86619140      0.63377254
C       4.51823869      0.73237516      1.66588091
C       3.71576527     -0.32476252      2.11331950
C       2.80996932     -0.94847923      1.24929835
O       1.99812417     -1.99862959      1.60054757
C       1.92958036     -2.33630386      2.97925776
C       2.24131125     -2.10686241     -1.92760863
F       3.53798199     -2.45306189     -1.92803976
C       1.39985141     -2.72804395     -2.83367974
C       0.05218638     -2.38824891     -2.84879440
C      -0.47410465     -1.42363892     -1.95714142
C      -1.84988737     -1.06984655     -1.94077809
N      -2.74928537     -1.63076623     -2.88743059
H      -5.69379965      0.98606115      3.36232791
H      -5.02525204      2.54888227      2.86335412
H      -4.12747846      1.05155411      2.54237491
H      -6.85871946      1.75827462      1.34537306
H      -5.93518245      0.29838995      0.99011361
H      -4.99700190      3.16630092      0.37778404
H      -5.74404597      2.06560035     -0.79328628
H      -3.01495569      1.91736529      0.31970587
H       3.46000989      0.90472148     -1.54478248
H       6.85329963      2.18407450      0.99097683
H       5.56243841      3.35468656      1.46925617
H       6.56217456      3.64598634      0.04069018
H       5.20538665      1.18334136      2.37399954
H       3.82935914     -0.64119678      3.14478839
H       1.61687021     -1.47899923      3.58469302
H       1.17229703     -3.11781801      3.09414057
H       2.88291391     -2.74392000      3.33063426
H       1.79817997     -3.46853486     -3.52020164
H      -0.58577054     -2.87791402     -3.58087668
H      -2.64023696     -2.63019404     -3.02218039
H      -3.72789667     -1.39343006     -2.67053940
