29
COC(=O)C1C2C=CC(C2)C1C(=O)OC
C      -3.49183426      1.87821145     -0.11347678
O      -2.49194570      0.95624659     -0.54943992
C      -1.34293213      0.99626496      0.18416756
O      -1.13643846      1.76362466      1.11399264
C      -0.33814986      0.01188130     -0.36878379
C      -0.91372072     -1.41285674     -0.56857784
C      -1.42128187     -1.95139961      0.75144278
C      -0.35062008     -2.17354798      1.52786785
C       0.87157965     -1.78477247      0.72514788
C       0.38195734     -2.22395249     -0.66111000
C       0.86395417     -0.23954324      0.59910759
C       2.15708462      0.27930897      0.01193514
O       3.15707485     -0.39487299     -0.19100152
O       2.05633184      1.61535127     -0.23461908
C       3.24745449      2.20613544     -0.75601991
H      -4.37097356      1.75056406     -0.75106533
H      -3.13467297      2.90748297     -0.21763496
H      -3.78152907      1.66965196      0.92121699
H       0.00998489      0.40955863     -1.33123443
H      -1.59733180     -1.54391685     -1.40870159
H      -2.45760964     -2.08483637      1.02515519
H      -0.35211471     -2.51959494      2.55092448
H       1.79979740     -2.25696303      1.05027353
H       0.21589647     -3.30608313     -0.74245924
H       1.03621883     -1.90527969     -1.48007329
H       0.74799175      0.22379631      1.58656873
H       3.50651614      1.75769194     -1.72019097
H       4.07166926      2.09985736     -0.04381404
H       3.05764313      3.27199167     -0.90959769
