37
Nc1nc(=O)c(O[C@@H]2O[C@H](CO)[C@@H](O)[C@H](O)[C@H]2O)c(N)[nH]1
N       5.50369266     -0.78444206      1.15361631
C       4.33675957     -0.37405644      0.60051960
N       3.75589214      0.70952174      0.99235299
C       2.57271838      1.05799437      0.37931491
O       1.99145955      2.12167671      0.59496352
C       1.93101425      0.07730130     -0.56972288
O       0.69778772      0.36625133     -1.13374275
C      -0.35387645      0.42383700     -0.15558046
O      -1.15299901     -0.75370172     -0.31765076
C      -2.27975525     -0.79814294      0.57631204
C      -2.98990156     -2.13696996      0.33710981
O      -3.28860859     -2.30316794     -1.05048148
C      -3.21628693      0.39224962      0.33189433
O      -4.27420734      0.40954754      1.29533334
C      -2.43098073      1.69763179      0.45259472
O      -3.28838690      2.79655987      0.10102365
C      -1.18818472      1.69340910     -0.43574645
O      -0.49455117      2.92812414     -0.18702406
C       2.63346276     -1.02005156     -0.91996898
N       2.13445347     -1.96344628     -1.79517381
N       3.87428273     -1.20176301     -0.36956287
H       6.20553037     -1.06260048      0.47788963
H       5.87615756     -0.07065781      1.77546990
H       0.03791279      0.44570325      0.87040239
H      -1.92087813     -0.78987161      1.61386949
H      -3.91749941     -2.21993586      0.91057178
H      -2.33320507     -2.96611279      0.62125026
H      -2.44946832     -2.12984856     -1.51805433
H      -3.67530178      0.33382679     -0.66258075
H      -4.73874393      1.25856345      1.14582578
H      -2.14876663      1.87268291      1.49883905
H      -2.68559820      3.56349266      0.00501432
H      -1.48508270      1.72042761     -1.49121625
H       0.45875732      2.73924024     -0.03533260
H       2.82975729     -2.24545845     -2.48087099
H       1.28940352     -1.62293605     -2.25861939
H       4.18324073     -2.16487789     -0.35283902
