30
CC(C)(C)C(=O)OCn1cc(F)c(=O)[nH]c1=O
C      -2.43142398     -1.15948752     -0.98662301
C      -2.50597554      0.00201071      0.01334330
C      -2.39256597      1.34605047     -0.71801025
C      -3.85386573     -0.05686781      0.74917588
C      -1.36570425     -0.12227227      1.02645202
O      -1.51077695     -0.22612983      2.23716448
O      -0.15520836     -0.09033135      0.40507806
C       0.94165060     -0.24782257      1.30385204
N       2.16988726     -0.10709140      0.53196138
C       2.53309090      1.14198876      0.06103946
C       3.62766234      1.31858533     -0.67773384
F       3.99532295      2.52462212     -1.14666142
C       4.47988414      0.16172052     -1.01184196
O       5.49672286      0.26010075     -1.68838953
N       4.04534650     -1.03724953     -0.50825452
C       2.91447108     -1.24438023      0.24506128
O       2.62432119     -2.37725943      0.61913104
H      -3.27107041     -1.13185541     -1.69003014
H      -2.45411590     -2.12585722     -0.46983851
H      -1.50705888     -1.12787656     -1.57444281
H      -1.46519140      1.41293866     -1.29813009
H      -3.22790798      1.49186854     -1.41187977
H      -2.39179765      2.18153178     -0.00847901
H      -3.94363367      0.75541759      1.47983618
H      -3.96758263     -1.00086954      1.29475672
H      -4.69313420      0.02852740      0.04984996
H       0.89212363     -1.23173021      1.78291222
H       0.92896142      0.53403013      2.07380375
H       1.88940650      1.97992653      0.30898606
H       4.59816211     -1.85223841     -0.72543494
