51
O=C([O-])C(O)C(O)C1OB(O)OC1CO.O=C([O-])C(O)C(O)C1OB(O)OC1CO.[Ca+2]
O       2.48604536      2.06498456      1.40908777
C       2.51070617      1.29704543      0.42487566
O       2.86471375      1.78989487     -0.82112806
C       2.17102933     -0.11177267      0.57350739
O       2.65200760     -0.90645765     -0.48208901
C       0.69375982     -0.39782942      0.73000935
O       0.61774597     -1.75846445      1.01820657
C      -0.08325030      0.00087606     -0.50108111
O       0.14070592      1.40258371     -0.60146257
B      -0.72287479      1.88459787      0.50101676
O      -1.25957272      3.25275909      0.45353930
O      -1.62700493      0.77813936      0.90871059
C      -1.54936197      0.02683315     -0.27872906
C      -2.28466375     -1.24422954     -0.26333880
O      -1.93129635     -2.16396232      0.68292949
O       3.60525534      0.97426525      1.20626300
C       3.38440657      0.93789168     -0.01131400
O       4.32645696      1.49493618     -0.88839271
C       2.17161288      0.33623526     -0.62666124
O       2.45409089     -0.84898691     -1.26095712
C       1.08691005      0.14959592      0.44814121
O       0.81337798      1.33415455      1.07293947
C      -0.06631741     -0.49322245     -0.22516337
O      -0.63503537      0.29791323     -1.22423107
B      -1.89973933     -0.41250671     -1.43489171
O      -2.54395113     -0.45525684     -2.75562146
O      -2.13351132     -1.34517510     -0.31159977
C      -1.24209041     -0.79024270      0.63993527
C      -1.92733148      0.45664716      1.14223516
O      -3.15848145      0.08125681      1.72207392
Ca      0.00000000      0.00000000      0.00000000
H       2.69036234     -0.49211639      1.48870734
H       3.49312577     -1.34995888     -0.24916628
H       0.27720599      0.17719004      1.57852549
H       1.00187252     -2.24719464      0.24395577
H       0.24629527     -0.51684425     -1.41332719
H      -2.08553292      3.19691061     -0.09903846
H      -1.96790912      0.73812944     -1.06055188
H      -3.37151992     -0.99341284     -0.07399833
H      -2.28567431     -1.64769979     -1.30343874
H      -2.67691471     -2.78000136      0.89907787
H       1.81843316      1.05809967     -1.40075801
H       2.73000563     -1.58036669     -0.68472379
H       1.51340499     -0.54745417      1.17992686
H       1.03605064      1.31208203      2.05589979
H       0.27432507     -1.44432596     -0.69510108
H      -3.53972314     -0.47581986     -2.65419299
H      -1.01984628     -1.51316709      1.44164507
H      -1.34090182      0.99844893      1.91015294
H      -2.17747583      1.07589884      0.25938792
H      -3.52992518     -0.60090105      1.09500771
