24
O=C1CCc2cccc3c2N1CC3
O      -0.20576741     -3.39558247     -0.05890249
C       0.20327847     -2.24331155      0.06992068
C       1.63970496     -1.94332459      0.49196036
C       2.20453894     -0.62978245     -0.06216990
C       1.20891552      0.48508958      0.02035237
C       1.51923351      1.84336505      0.01197440
C       0.48617828      2.80433774     -0.01765273
C      -0.86505677      2.42400318     -0.06255725
C      -1.16147418      1.07549086     -0.07213755
C      -0.12854877      0.15475687     -0.01255697
N      -0.60538072     -1.14333736     -0.03571011
C      -2.05218355     -1.11703856     -0.24803574
C      -2.48062067      0.36609150     -0.12229471
H       2.28013778     -2.77424722      0.17612253
H       1.64587100     -1.91589169      1.58901743
H       2.47605109     -0.76677960     -1.11616705
H       3.11632976     -0.36832794      0.48660881
H       2.55546040      2.17254518      0.01524800
H       0.74360144      3.86186296     -0.01978971
H      -1.64864290      3.17396318     -0.09567205
H      -2.54960810     -1.75944279      0.48602346
H      -2.25922137     -1.51288226     -1.24898711
H      -3.08437874      0.67719283     -0.97957564
H      -3.03841797      0.53124956      0.80498096
