19
CC1(O)CC(C)(O)OO1
C      -2.42161427      0.22904538      0.11266381
C      -1.03666115     -0.16482860     -0.37153947
O      -0.96495693     -0.04994362     -1.79072559
C       0.06193625      0.65834963      0.25029442
C       1.24106274     -0.25314305      0.00138750
C       2.36745929     -0.03949352      0.99904007
O       1.77177660     -0.06472880     -1.30528016
O       0.73751596     -1.58500794      0.13739572
O      -0.73527110     -1.50081872      0.02311177
H      -2.50986612      0.12761188      1.19941403
H      -2.66389383      1.25742531     -0.17450754
H      -3.18306208     -0.42169529     -0.33231353
H      -1.72461528     -0.55264590     -2.13453459
H       0.17782436      1.64438479     -0.21002102
H      -0.11334148      0.76897262      1.32708466
H       2.03550458     -0.22725837      2.02558652
H       2.77022029      0.97653891      0.93127511
H       3.19366618     -0.73091281      0.79656348
H       0.99631601     -0.07185190     -1.90151622
