21
CCCOCCC
C       3.67826361      0.23008319      0.49039958
C       2.29976338     -0.03418597      1.06864923
C       1.20388910      0.14083630      0.02535354
O      -0.05232255     -0.12437889      0.64751830
C      -1.13665311      0.01900493     -0.26854054
C      -2.43213034     -0.28048269      0.47448353
C      -3.64504336     -0.15111416     -0.42916464
H       4.44459547      0.09731867      1.26043824
H       3.89824858     -0.46013120     -0.33027442
H       3.75393836      1.25327382      0.10875956
H       2.25705522     -1.04992903      1.47980092
H       2.11466334      0.64067767      1.91298375
H       1.35577142     -0.55803704     -0.80526177
H       1.21060581      1.16556021     -0.36363224
H      -1.15195003      1.04258000     -0.66029808
H      -1.00678029     -0.68101963     -1.10191455
H      -2.53092322      0.39888420      1.32964721
H      -2.38852840     -1.29172814      0.89648548
H      -3.58413533     -0.84962286     -1.26980290
H      -4.55987528     -0.37137827      0.12977706
H      -3.72845237      0.86378891     -0.83079990
