38
O=C(OCC1CO1)C1CC=CCC1C(=O)OCC1CO1
O       0.64154776      0.94458914     -0.99400843
C       1.10206712      0.27613410     -0.07807866
O       1.99167372      0.72627164      0.84859846
C       2.33785968      2.10819427      0.69953016
C       3.29301615      2.46391032      1.78889367
C       2.80652147      2.95617253      3.12561307
O       3.32387896      3.85500314      2.13128751
C       0.77071785     -1.18036549      0.17965114
C       1.95941354     -2.04565030     -0.25774865
C       1.61584563     -3.50030863     -0.39345088
C       0.35675536     -3.96007616     -0.41011585
C      -0.84626035     -3.06643978     -0.33234427
C      -0.51262209     -1.58904673     -0.56665049
C      -1.68489161     -0.74826592     -0.10691763
O      -1.79000931     -0.25942370      1.01001669
O      -2.59592974     -0.62609630     -1.10875973
C      -3.72803365      0.20810420     -0.81484167
C      -3.35926697      1.64479381     -0.98135478
C      -3.09687121      2.22662488     -2.34461911
O      -4.33697439      2.44777478     -1.65522615
H       2.82359864      2.26172768     -0.27093108
H       1.43129194      2.72324438      0.75402448
H       4.23324326      1.93391417      1.73014508
H       1.74127350      2.98376418      3.32072346
H       3.42167574      2.76849817      3.99661549
H       0.60363823     -1.29669643      1.26011922
H       2.76741197     -1.94125556      0.47710486
H       2.36440676     -1.69459443     -1.21516167
H       2.44396256     -4.20100763     -0.47472017
H       0.17672853     -5.03051547     -0.48878612
H      -1.57917554     -3.39050864     -1.08172100
H      -1.32122726     -3.20985616      0.64649557
H      -0.36460552     -1.40907690     -1.64124654
H      -4.51881899     -0.07748601     -1.51756404
H      -4.11395365      0.00876419      0.19173475
H      -2.84687578      2.06497738     -0.12629418
H      -3.10509608      1.56693638     -3.20356914
H      -2.40591622      3.05727089     -2.41856279
