60
CCCCC1=NC2(CCCC2)C(=O)N1Cc1ccc(-c2ccccc2-c2nnn[nH]2)cc1
C       4.53675412      4.16176396     -0.82090260
C       3.49359241      3.41243229     -0.00641426
C       3.58626569      1.90267776     -0.22834277
C       2.53230886      1.15807392      0.58984555
C       2.54928731     -0.33744053      0.37816121
N       3.39245833     -0.92541910     -0.41442370
C       3.05487449     -2.36904563     -0.33851940
C       2.65716337     -2.89405810     -1.71882550
C       3.27657546     -4.28489991     -1.77757035
C       4.59998346     -4.10701352     -1.05250510
C       4.26142965     -3.19066018      0.12395979
C       1.90108269     -2.42257344      0.64505705
O       1.29484468     -3.41804083      1.00956746
N       1.67228095     -1.13131238      1.02033288
C       0.63149836     -0.76180772      1.96360639
C      -0.63204261     -0.27698764      1.28551563
C      -1.31252564     -1.08698414      0.36545116
C      -2.48548058     -0.63928148     -0.24795574
C      -3.01986379      0.62030761      0.05938250
C      -4.28245302      1.06597076     -0.54886851
C      -4.26181148      1.43821165     -1.90915837
C      -5.40829277      1.89938409     -2.55512498
C      -6.60048934      2.00318210     -1.85307909
C      -6.64517795      1.63963434     -0.50766332
C      -5.50349951      1.15844749      0.16469371
C      -5.67102927      0.78531144      1.57466945
N      -6.59016291      1.23701706      2.41174211
N      -6.38107584      0.60413262      3.61120525
N      -5.36449755     -0.23905454      3.52945251
N      -4.93299390     -0.13902014      2.26605260
C      -2.33626418      1.43063583      0.97861822
C      -1.16058694      0.98527139      1.58977079
H       4.45112521      5.23899723     -0.64729139
H       4.40409467      3.97912260     -1.89216253
H       5.54854693      3.85237318     -0.54209509
H       3.63373284      3.64203881      1.05644808
H       2.49598030      3.76912740     -0.28675088
H       4.58743373      1.54953093      0.04858064
H       3.45440164      1.67984388     -1.29486646
H       2.68574203      1.35508466      1.65710861
H       1.53613213      1.52732140      0.32392949
H       3.08479445     -2.26833924     -2.51411408
H       1.57211214     -2.93451928     -1.87452259
H       3.40916348     -4.63697991     -2.80403498
H       2.64457456     -5.00625036     -1.24423088
H       5.02626569     -5.06030471     -0.72595366
H       5.32795402     -3.61724566     -1.71108889
H       4.01175900     -3.80355361      1.00023853
H       5.12612017     -2.57181525      0.39331883
H       1.03022965      0.01737590      2.62229030
H       0.37993687     -1.62313373      2.59354949
H      -0.93735624     -2.07938955      0.11818342
H      -2.98851618     -1.28964833     -0.96289027
H      -3.33220355      1.38053653     -2.47392851
H      -5.36648633      2.18325067     -3.60248667
H      -7.49810797      2.36710611     -2.34679173
H      -7.59317510      1.72726160      0.02423205
H      -4.15929614     -0.71246582      1.95869854
H      -2.72338716      2.41798675      1.23229440
H      -0.66372336      1.63783280      2.30660566
