28
Cc1c(Cl)ccc(Cc2ccc(Cl)cc2Cl)c1Cl
C      -4.03582888     -1.14081618      0.01740617
C      -2.86012683     -0.35068284     -0.50255387
C      -2.74437943     -0.00613439     -1.86007696
Cl     -3.92605563     -0.45536345     -3.04078573
C      -1.65386556      0.73329492     -2.31988523
C      -0.66147650      1.14768083     -1.43620164
C      -0.73912178      0.83628600     -0.06953632
C       0.38406628      1.31711526      0.83364458
C       1.66674207      0.51889732      0.68996180
C       1.72235268     -0.77243583      1.24910997
C       2.87262149     -1.55644571      1.13898165
C       3.98467842     -1.05903454      0.46883498
Cl      5.40223578     -2.02391338      0.33220313
C       3.95807438      0.21449860     -0.09010793
C       2.80593212      1.00029406      0.01974994
Cl      2.86132290      2.57218473     -0.69750083
C      -1.84875523      0.09097979      0.38745633
Cl     -1.99565145     -0.28503083      2.08073547
H      -4.66446244     -0.50407231      0.64860787
H      -3.69082794     -2.00397650      0.59676352
H      -4.67201015     -1.54844440     -0.77132156
H      -1.57066296      0.99410313     -3.37294503
H       0.17526705      1.72421076     -1.82605587
H       0.54768638      2.38258405      0.63405905
H       0.09372475      1.30995602      1.89005262
H       0.86415937     -1.18076200      1.77964747
H       2.89130949     -2.55095979      1.57792417
H       4.83305161      0.59598669     -0.61005252
