43
CCC(C)C(C)C(C)CCc1ccc(O)cc1
C      -4.40485039     -1.07090590      2.49339983
C      -3.11541135     -0.55394540      1.86540694
C      -3.16399443     -0.38732408      0.32329622
C      -4.34695028      0.50866922     -0.08743023
C      -1.80460576      0.16737742     -0.24605117
C      -1.88603838      0.39014636     -1.76828476
C      -0.55137076     -0.69333652      0.14086929
C      -0.57412801     -2.09012972     -0.48955604
C       0.77247596      0.04637064     -0.18332207
C       2.01000904     -0.63587601      0.41847477
C       3.25993917      0.18080861      0.19368490
C       3.91796848      0.13769541     -1.04390618
C       5.06803537      0.89743996     -1.25847258
C       5.56063899      1.70327412     -0.23988803
O       6.68930390      2.42653777     -0.49253274
C       4.91932532      1.76536902      0.99370451
C       3.76773300      1.00481205      1.20870771
H      -5.20128346     -0.31938488      2.46520543
H      -4.22875366     -1.31369385      3.54654838
H      -4.75549829     -1.97946580      1.99201236
H      -2.33776063     -1.27823010      2.13390503
H      -2.84434222      0.40130287      2.33588968
H      -3.35347403     -1.37776686     -0.11278741
H      -5.29353664      0.14486410      0.32473362
H      -4.49109848      0.51346628     -1.17434041
H      -4.19956287      1.54116804      0.25101623
H      -1.65674223      1.15952672      0.20574004
H      -0.93497499      0.72844870     -2.18440268
H      -2.60747005      1.17412040     -2.01710773
H      -2.18201623     -0.52295099     -2.29438592
H      -0.55205764     -0.82343038      1.22713594
H      -1.52929945     -2.59925156     -0.32521454
H      -0.39244979     -2.04708670     -1.56844143
H       0.19616781     -2.72797068     -0.04753603
H       0.90936711      0.13270161     -1.26901545
H       0.70817774      1.07276271      0.20805466
H       2.16271468     -1.62786356     -0.02574514
H       1.86632709     -0.80239516      1.49590678
H       3.53684609     -0.48728053     -1.84902393
H       5.57628078      0.86243651     -2.21784749
H       6.92129286      2.92513778      0.30644995
H       5.29674036      2.39600587      1.79161331
H       3.26832629      1.05784650      2.17270647
