29
CNC(=O)c1cc(N2CC2)c([N+](=O)[O-])cc1[N+](=O)[O-]
C       3.66622025      1.94295804     -1.64893738
N       2.57390692      1.02870340     -1.41688602
C       1.84050513      1.08647685     -0.25647484
O       1.97891126      1.95076496      0.60076301
C       0.78134288      0.06876942     -0.06296632
C      -0.46653511      0.54215693      0.39360879
C      -1.54064230     -0.32831043      0.65858178
N      -2.82071649      0.09494299      1.09732171
C      -3.37536396      1.37646219      0.65126490
C      -2.92888211      1.19229570      2.06597528
C      -1.30080046     -1.70213996      0.46465959
N      -2.35938161     -2.65497881      0.72347686
O      -2.94967861     -3.10775295     -0.26629535
O      -2.53279478     -2.99905690      1.89934502
C      -0.07285003     -2.21336354      0.02805485
C       0.95708406     -1.30594604     -0.22848717
N       2.22869009     -1.84555123     -0.64162732
O       2.89678397     -2.43027582      0.21654842
O       2.52432318     -1.70821334     -1.83632075
H       4.54018207      1.58746947     -1.09688811
H       3.40266658      2.94757180     -1.30763158
H       3.88565161      1.95814868     -2.71898296
H       2.47438565      0.25730871     -2.07163201
H      -0.57923773      1.61561136      0.54359376
H      -2.77836278      1.96048691     -0.03297356
H      -4.43463411      1.32319610      0.43546419
H      -2.00563665      1.63945933      2.40470149
H      -3.67784956      1.00755198      2.82506051
H       0.07271265     -3.28474581     -0.09713746
