9
C=CCBr
C       1.42040091      0.17922582      0.15725704
C       0.28410378     -0.37714463     -0.28370883
C      -1.07663664     -0.01838949      0.21206374
Br     -2.10106561      0.68822193     -1.28079996
H       2.38124497     -0.13102105     -0.24292913
H       1.42232014      0.95615729      0.91575352
H       0.34260928     -1.15441775     -1.04338061
H      -1.60834544     -0.89842285      0.58199050
H      -1.06463140      0.75579074      0.98375374
