30
CCOC(=O)n1cnc2c1c(=O)n(C)c(=O)n2C
C       4.37054216      0.25618121     -1.28576913
C       3.78784270      0.55617613      0.08218031
O       2.39375790      0.22229970      0.10599692
C       2.09558437     -1.04704262      0.44585630
O       2.86750958     -1.96514579      0.67776274
N       0.71325136     -1.26565496      0.43800769
C       0.15151418     -2.53259148      0.47792519
N      -1.15543099     -2.52033318      0.33528293
C      -1.46363374     -1.20267509      0.25313108
C      -0.36381740     -0.40029806      0.36225661
C      -0.47456829      1.01972824      0.41821277
O       0.44019062      1.77150305      0.73906633
N      -1.76680635      1.48245788      0.13760955
C      -1.96777482      2.91933968      0.12736265
C      -2.92105286      0.68176256      0.06221832
O      -4.04398439      1.18428078     -0.03247777
N      -2.73481686     -0.69789487      0.11693356
C      -3.87298207     -1.59805166      0.04401254
H       3.81366575      0.78618325     -2.06547441
H       5.42067669      0.55748089     -1.33494021
H       4.30173551     -0.81185674     -1.51551334
H       4.33610617      0.03198413      0.87348493
H       3.86540568      1.62826507      0.29029243
H       0.76484253     -3.42030414      0.58198446
H      -2.25215560      3.23515533      1.13618106
H      -1.05556182      3.44623955     -0.16754214
H      -2.76740037      3.19311451     -0.56770779
H      -3.93435319     -2.17022994      0.97514846
H      -4.81282870     -1.05779817     -0.09638117
H      -3.73545773     -2.28227525     -0.79931581
