43
CN(C(=O)CNC(=O)CN)c1ccc(Cl)cc1C(=O)c1ccccc1Cl
C       2.60715113      1.80117742      0.77270889
N       1.19560906      1.79185177      0.39060073
C       0.75499998      1.71564570     -0.93196642
O      -0.44797302      1.73552070     -1.22702641
C       1.78948222      1.55505561     -2.05412294
N       2.01974925      0.15222883     -2.31006343
C       3.14419777     -0.50597712     -1.87220821
O       4.15132016      0.06616762     -1.46443730
C       3.04018030     -2.03306212     -1.97063530
N       1.62577860     -2.46560002     -1.99420277
C       0.25667129      1.61113138      1.45645980
C       0.22946612      2.58297966      2.47150507
C      -0.69426578      2.50406584      3.51600423
C      -1.59462401      1.44535195      3.56301978
Cl     -2.72182963      1.34166437      4.85794447
C      -1.58073465      0.45998493      2.57891512
C      -0.65971373      0.53796174      1.51950542
C      -0.59163482     -0.61789747      0.58283292
O       0.49608513     -1.08803365      0.26129175
C      -1.84096839     -1.22231704      0.05706546
C      -2.81077530     -0.38110578     -0.50917887
C      -3.98924595     -0.91591459     -1.03232562
C      -4.20685367     -2.29080794     -0.99345729
C      -3.24705151     -3.13326126     -0.42968264
C      -2.06230761     -2.60510473      0.09614127
Cl     -0.96017839     -3.71434691      0.83120791
H       2.75069849      2.16461588      1.79402112
H       2.98837124      0.77912239      0.71622043
H       3.18158329      2.45094137      0.10984338
H       2.71886289      2.08951109     -1.85675547
H       1.35873156      1.98310050     -2.96633153
H       1.21700289     -0.45889345     -2.46154739
H       3.54366464     -2.35891581     -2.88494169
H       3.53748276     -2.47098531     -1.10015624
H       1.60550461     -3.48390814     -1.93486939
H       1.19960492     -2.15083979     -1.10543124
H       0.90324839      3.43588715      2.43555072
H      -0.70654151      3.27330485      4.28425287
H      -2.26531026     -0.38047025      2.66220605
H      -2.64913040      0.69349900     -0.57207774
H      -4.73080300     -0.25791850     -1.48015973
H      -5.12308621     -2.70875957     -1.40437648
H      -3.43241886     -4.20491037     -0.40134331
