34
CC/C=C\CCOC(=O)C/C=C\CC
C       6.15936632      0.42593177      0.01687548
C       4.99640071      0.29099112     -0.95303679
C       3.89106892      1.25049273     -0.61840048
C       2.68150842      0.96156724     -0.11145855
C       2.15257503     -0.39062277      0.29035022
C       1.03253068     -0.86633133     -0.63793314
O      -0.14042256     -0.04234509     -0.51186106
C      -0.97782169     -0.35724033      0.52044549
O      -0.78129902     -1.25379897      1.32943123
C      -2.15435090      0.60948728      0.52035970
C      -3.22678867      0.19156579      1.48952344
C      -4.53310540      0.00121810      1.23977979
C      -5.25826468      0.19582068     -0.06032698
C      -5.67422316     -1.13531879     -0.66590366
H       5.84970359      0.18832134      1.04025042
H       6.96489559     -0.26135568     -0.26092938
H       6.56641585      1.44278150      0.01063953
H       4.64912314     -0.74630210     -0.96489630
H       5.34535190      0.50707668     -1.96975485
H       4.10924785      2.29667563     -0.83396215
H       1.99338045      1.79068056      0.05426966
H       1.78463778     -0.30912148      1.31961136
H       2.94860587     -1.14082743      0.30163744
H       1.35207319     -0.81432864     -1.68500784
H       0.78257603     -1.91537239     -0.43810015
H      -1.77774290      1.59553739      0.81278427
H      -2.53700161      0.66666926     -0.50216524
H      -2.87961351      0.00795160      2.50760440
H      -5.15979490     -0.32394545      2.07092944
H      -6.15132198      0.80292625      0.12941168
H      -4.65897928      0.75432692     -0.78504306
H      -6.32317771     -1.69653884      0.01497820
H      -4.80067015     -1.75551025     -0.89389912
H      -6.22488321     -0.97106228     -1.59768085
