30
c1ccc(CNCc2ccccc2)cc1
C      -4.82349399      0.80440577     -0.21995205
C      -3.98118921      0.97142778     -1.31729976
C      -2.77820357      0.26741220     -1.38725163
C      -2.40489315     -0.61296117     -0.36063250
C      -1.10204311     -1.37271443     -0.44315143
N       0.03846659     -0.46590694     -0.34972110
C       1.29973631     -1.20131616     -0.36247583
C       2.47320131     -0.26484687     -0.19677440
C       2.78557145      0.66445178     -1.20036430
C       3.86915400      1.53164061     -1.05360433
C       4.65146066      1.48056245      0.09832112
C       4.34923691      0.56503769      1.10487741
C       3.26487598     -0.30285569      0.95986144
C      -3.25861720     -0.76839564      0.74072813
C      -4.46235667     -0.06378686      0.80888265
H      -5.75929383      1.35399458     -0.16490973
H      -4.25724603      1.65290140     -2.11741129
H      -2.12057053      0.41192047     -2.24212410
H      -1.06280878     -2.11997782      0.35933812
H      -1.08131103     -1.92073666     -1.39347426
H      -0.02869730      0.06776971      0.51599985
H       1.31340311     -1.95040501      0.43915391
H       1.42044272     -1.74220410     -1.30944106
H       2.17265390      0.71828644     -2.09791968
H       4.09856277      2.24917805     -1.83674133
H       5.49405933      2.15706196      0.21310256
H       4.95752667      0.52816991      2.00474180
H       3.04252903     -1.00829505      1.75683567
H      -2.99217373     -1.43895873      1.55411821
H      -5.11798263     -0.19085969      1.66628508
