22
Nc1nc(N)nc(NC2CC2)n1
N       2.22585974     -2.42941434      0.95583125
C       1.86357087     -1.16452676      0.53344536
N       2.75767066     -0.47286540     -0.15038262
C       2.35081690      0.72078018     -0.54325283
N       3.25262644      1.49966539     -1.24360941
N       1.16166334      1.24221916     -0.29590226
C       0.33205317      0.46133467      0.38550463
N      -0.93574372      0.99990048      0.64159466
C      -2.06352198      0.11207186      0.89287818
C      -2.92898735     -0.38553994     -0.22964104
C      -3.47363643      0.61287863      0.75051238
N       0.63940952     -0.75768714      0.81483624
H       1.40229111     -2.99929809      1.09093219
H       2.95550642     -2.80043786      0.36355221
H       4.19752712      1.21284486     -1.02704512
H       3.03160337      2.47888300     -1.12754648
H      -1.05145282      1.79569302      0.02420949
H      -1.88271938     -0.57069969      1.72126977
H      -3.28704365     -1.40672671     -0.17141992
H      -2.71258401     -0.04783104     -1.23592959
H      -4.20420952      0.27008428      1.47400581
H      -3.63069982      1.62867143      0.40903894
