13
O=C(O)CC(=O)C(=O)O
O       1.36255199      1.33867676      0.42496220
C       1.49526567      0.18340410      0.05957986
O       2.65726487     -0.24986385     -0.46319519
C       0.47792995     -0.90211414      0.16727983
C      -0.88599519     -0.35786839      0.44394655
O      -1.56458019     -0.60308545      1.43819280
C      -1.49037030      0.55339987     -0.61902312
O      -0.97771253      0.73150321     -1.70509288
O      -2.65756276      1.07026064     -0.19449333
H       3.23208965      0.54528823     -0.49015001
H       0.76441501     -1.56893727      0.98654399
H       0.43815471     -1.47832611     -0.76235159
H      -2.85145088      0.73766240      0.71380090
