37
CCn1c(O)c(N=Nc2ccc(Cl)cc2[N+](=O)[O-])c(C)c(C#N)c1=O
C      -3.61293278     -3.01004188      0.25716769
C      -3.53890987     -1.96110390     -0.84292006
N      -2.83591275     -0.75227779     -0.40186754
C      -1.45715324     -0.67543629     -0.50399487
O      -0.84007917     -1.77232395     -1.06427294
C      -0.77826829      0.40890996     -0.07234329
N       0.58854338      0.54068578     -0.15726396
N       1.23663761     -0.24568896      0.56777646
C       2.61800132      0.01267647      0.46524034
C       3.26232655      0.54798417      1.59092912
C       4.63256320      0.83079374      1.57346164
C       5.38135724      0.57459813      0.42646762
Cl      7.06390181      0.92487893      0.41059113
C       4.77749487      0.03212721     -0.70308321
C       3.40235743     -0.25156128     -0.67092775
N       2.79956830     -0.83409511     -1.86094188
O       1.90481048     -1.67884597     -1.70694084
O       3.23150519     -0.45370853     -2.95703124
C      -1.50481253      1.55011400      0.48919851
C      -0.67891209      2.74776337      0.90049843
C      -2.84859513      1.48733910      0.61902857
C      -3.62004079      2.55059297      1.16803090
N      -4.18988797      3.45318330      1.62515076
C      -3.59211385      0.26413143      0.18118808
O      -4.80949399      0.19494538      0.33987628
H      -4.15778225     -3.89135490     -0.09484875
H      -2.61329049     -3.32884354      0.56929243
H      -4.12899419     -2.61874423      1.14002042
H      -4.55842312     -1.69326464     -1.14499816
H      -3.05849980     -2.37115998     -1.73856398
H       0.12396679     -1.60334810     -1.11611414
H       2.68726672      0.75220012      2.49293569
H       5.10686990      1.25037801      2.45847105
H       5.37125099     -0.17071356     -1.59235622
H      -0.12194543      3.14298610      0.04343353
H       0.03409879      2.47148115      1.68542837
H      -1.27647285      3.57474330      1.29394707
