32
Cc1ccc(NS(=O)(=O)c2ccc(N)cc2)cc1Cl
C      -3.87192367     -1.88493657     -0.90728016
C      -2.94535694     -0.99942290     -0.12237936
C      -3.06523593      0.39408244     -0.23021860
C      -2.21535712      1.23981766      0.48612588
C      -1.23641811      0.70389431      1.31931609
N      -0.34043350      1.55227348      2.02784539
S       0.76506159      2.49533796      1.16324017
O       1.70442290      3.00716516      2.13928787
O       0.05012179      3.38438095      0.27300840
C       1.62536567      1.29349095      0.17447074
C       2.70828456      0.60159471      0.72066498
C       3.38105638     -0.34366820     -0.05773963
C       3.01575612     -0.56555407     -1.38974501
N       3.61275963     -1.59939137     -2.11860579
C       1.90434016      0.10800178     -1.90701875
C       1.22377338      1.05806764     -1.14165689
C      -1.10490190     -0.67759606      1.44145817
C      -1.95493933     -1.52377965      0.72313919
Cl     -1.74005429     -3.22807769      0.91149741
H      -4.57475119     -1.29745680     -1.50784093
H      -3.30293126     -2.51821340     -1.59547465
H      -4.46276368     -2.51281299     -0.23269989
H      -3.82385567      0.83553731     -0.87408566
H      -2.33204037      2.31746197      0.39126432
H       0.05830016      1.20727701      2.89954436
H       3.02881205      0.78144233      1.74392440
H       4.20107183     -0.90508117      0.38340253
H       3.52713598     -1.49819765     -3.12537214
H       4.56430977     -1.81076772     -1.83438135
H       1.56058523     -0.10021766     -2.91724938
H       0.37750465      1.58928841     -1.57115995
H      -0.33769889     -1.10394017      2.08106880
