40
NS(=O)(=O)c1ccc(NC2O[C@H](CO)[C@@H](O)[C@H](O)[C@@H]2O)cc1
N       6.30032892      0.39493857     -1.52038970
S       5.83947537     -0.28382757     -0.05556786
O       6.23570180      0.66095156      0.96225335
O       6.32304165     -1.64453474     -0.08074848
C       4.07748032     -0.28728561     -0.19345476
C       3.42155727     -1.41403823     -0.68353533
C       2.02549557     -1.41464568     -0.76121835
C       1.26350457     -0.30048049     -0.36813199
N      -0.12888077     -0.41823370     -0.42347493
C      -1.00214238      0.72910756     -0.22634317
O      -2.20642899      0.48441941     -0.97034787
C      -3.06540840     -0.52167226     -0.40994468
C      -4.26395203     -0.66764652     -1.35470443
O      -5.02795699      0.53587661     -1.39103322
C      -3.49471457     -0.13922130      1.01093636
O      -4.33422507     -1.13454603      1.60925084
C      -2.24216069      0.00957688      1.87580777
O      -2.62870437      0.45795888      3.18959268
C      -1.27918063      1.02667875      1.26803701
O      -1.85191952      2.34374001      1.41545239
C       1.94805030      0.80140173      0.15994838
C       3.34615724      0.81669396      0.24278142
H       6.84489296     -0.28043894     -2.05735884
H       6.78626811      1.27665625     -1.35437790
H       3.97895386     -2.29388818     -0.99602184
H       1.52674967     -2.31016000     -1.12711637
H      -0.39833828     -0.90417196     -1.27631072
H      -0.57104784      1.61880043     -0.70023267
H      -2.54359772     -1.48709364     -0.40399071
H      -3.92672153     -0.87294817     -2.37621187
H      -4.92403373     -1.48118432     -1.03997179
H      -4.40089864      1.24202803     -1.64345444
H      -4.04966043      0.80714075      1.02460858
H      -5.22966567     -0.99665402      1.24450564
H      -1.74836902     -0.96141920      2.00263597
H      -3.32779395     -0.16782356      3.46900268
H      -0.35511102      1.04321385      1.85444610
H      -2.18669797      2.36060391      2.33706131
H       1.42060555      1.68267481      0.51350119
H       3.84934705      1.68945216      0.65356788
