21
CC(=O)OCC=C(C)C
C       3.91549494      0.22864985      0.13235603
C       2.72968851      0.17709877     -0.78150409
O       2.79230041     -0.04145930     -1.98297059
O       1.59026934      0.41019312     -0.07782539
C       0.40092246      0.36878257     -0.87428856
C      -0.75168045      0.65736239      0.04107036
C      -1.86799497     -0.07062108      0.24447841
C      -2.91455182      0.39298540      1.22518874
C      -2.20059327     -1.36773076     -0.43993206
H       4.82520014      0.03443427     -0.44303848
H       3.99341842      1.22127703      0.58287051
H       3.82199176     -0.53888406      0.90472329
H       0.44716284      1.15103267     -1.64083106
H       0.32365593     -0.60814242     -1.35748509
H      -0.63545716      1.58688685      0.59795599
H      -3.87110219      0.54592112      0.71476038
H      -2.64241410      1.33634756      1.71022465
H      -3.05485150     -0.35602517      2.01147694
H      -3.16233370     -1.28290675     -0.95716678
H      -2.27714939     -2.17271192      0.29851334
H      -1.46197620     -1.67249015     -1.18358335
