46
CCOCCOC(=O)CCCCC(=O)OCCOCC
C      -7.36527179      0.64370323     -0.93592489
C      -7.37625803     -0.20989159      0.31960552
O      -6.08104859     -0.27172407      0.91284961
C      -5.23335904     -1.25723734      0.31287604
C      -3.86543114     -1.22041545      0.99521108
O      -3.17640160      0.01728475      0.73396181
C      -2.59284996      0.11789492     -0.49110764
O      -2.61524712     -0.74877081     -1.35344367
C      -1.94580164      1.47584871     -0.63538256
C      -0.84317590      1.50324349     -1.69415808
C       0.39107951      0.65482714     -1.36456359
C       1.14727987      1.13255068     -0.12501248
C       2.43788283      0.37140748      0.07538716
O       2.80768917     -0.59064003     -0.58134504
O       3.13114598      0.92132261      1.11309496
C       4.36685478      0.26461040      1.43634914
C       5.49038217      0.69543870      0.49356322
O       6.73596981      0.09061566      0.84070109
C       6.87997584     -1.22190360      0.29903010
C       8.23091734     -1.76543596      0.72128830
H      -8.38022261      0.77225905     -1.32319813
H      -6.75401197      0.19029957     -1.72183079
H      -6.93830770      1.63016749     -0.72709189
H      -8.04134605      0.25322505      1.05563599
H      -7.76104395     -1.21569537      0.11635803
H      -5.13838140     -1.05735338     -0.75780839
H      -5.68301869     -2.24581968      0.45683472
H      -3.98876614     -1.27972221      2.08173568
H      -3.24437199     -2.06843324      0.68478327
H      -2.73626347      2.18043903     -0.91838591
H      -1.54693228      1.79415250      0.33307479
H      -1.25173843      1.16057204     -2.65296923
H      -0.52848081      2.54317132     -1.84515265
H       0.10742194     -0.39721689     -1.24222546
H       1.06538694      0.68735327     -2.23024885
H       1.39141151      2.19544769     -0.23166833
H       0.53720582      0.99122437      0.77273258
H       4.62697674      0.54445380      2.46365100
H       4.23194452     -0.82311171      1.45299645
H       5.24480631      0.50515806     -0.55757034
H       5.62028919      1.78048505      0.57817954
H       6.82404116     -1.17836959     -0.79411767
H       6.08720321     -1.87681710      0.67367928
H       8.38962428     -2.77040998      0.32025047
H       9.03682206     -1.11293916      0.36979806
H       8.30541932     -1.80524890      1.81292270
