28
O=C1CCCCCCCCN1
O      -1.60327559      2.65257388     -0.97706748
C      -0.71136564      2.06478740     -0.36334159
C      -0.99623399      1.36399133      0.94840883
C      -1.94288966      0.17515909      0.75439362
C      -1.56036986     -1.05573505      1.58346710
C      -0.61898189     -2.06034733      0.90074481
C       0.76632174     -1.51932303      0.53868819
C       0.83724307     -0.99839152     -0.89992611
C       1.95571728      0.01955736     -1.12949216
C       1.74590562      1.37154002     -0.44279886
N       0.54378069      2.05072107     -0.89304116
H      -1.46993565      2.10523354      1.60497893
H      -0.08165393      1.07703583      1.46250528
H      -2.06002565     -0.09898139     -0.29959111
H      -2.93930412      0.50031030      1.08286746
H      -2.48531505     -1.59940669      1.81713466
H      -1.14073852     -0.74877796      2.54928266
H      -1.10758301     -2.48783135      0.01672395
H      -0.48081749     -2.89296047      1.60288048
H       1.49134022     -2.33962207      0.62369556
H       1.08265856     -0.77499518      1.27353424
H      -0.11452168     -0.57254997     -1.22496728
H       1.01073718     -1.85642526     -1.56265454
H       2.04407766      0.18786860     -2.21046744
H       2.91093208     -0.40571833     -0.79905308
H       2.58129608      2.03037996     -0.70589851
H       1.75446887      1.27773459      0.64393238
H       0.58853267      2.53417265     -1.78294604
