24
CC(=O)CC(=O)CC(C)C
C       3.01838678      1.43059135     -0.04451424
C       1.94625637      1.35902825      1.01032164
O       1.35828180      2.36759666      1.40153788
C       1.58011199     -0.00112122      1.53211236
C       0.71933698     -0.75657269      0.55842950
O       1.22310652     -1.57192238     -0.21420451
C      -0.77204361     -0.45818928      0.58751982
C      -1.51555413     -0.92097383     -0.67396812
C      -3.02634387     -0.87815525     -0.43729480
C      -1.15637740     -0.05192640     -1.88209472
H       3.92054116      0.92778747      0.31270269
H       2.66352419      0.96086113     -0.96479930
H       3.26184129      2.47688413     -0.24933376
H       1.05260598      0.09772029      2.48662467
H       2.49221690     -0.57087683      1.73812507
H      -1.17361745     -0.96783396      1.47142302
H      -0.91324629      0.61962649      0.72755267
H      -1.23984337     -1.95799213     -0.90261944
H      -3.30794706     -1.52979923      0.39661602
H      -3.36402732      0.13730421     -0.20337339
H      -3.56920380     -1.22004168     -1.32490428
H      -0.08538771     -0.09755215     -2.10262782
H      -1.42079185      0.99704020     -1.70956738
H      -1.69182611     -0.39148313     -2.77523503
