28
NC(Cc1c[nH]c2ccc(O)cc12)C(=O)O
N       3.00853137      0.21732660      0.40607680
C       1.90706860      1.21559000      0.19022585
C       0.76210850      1.06865594      1.20441672
C      -0.02958869     -0.19009453      1.01124329
C       0.04716374     -1.33534031      1.77996518
N      -0.83434203     -2.25304839      1.27528077
C      -1.48822631     -1.73326809      0.18298377
C      -2.46073257     -2.31052089     -0.64271804
C      -2.96552873     -1.53242001     -1.68775221
C      -2.51446176     -0.23427024     -1.88533761
O      -3.05778203      0.47029157     -2.92156009
C      -1.54333035      0.33616583     -1.05946113
C      -1.01402137     -0.43371303     -0.00108581
C       2.49875082      2.62230384      0.33217151
O       1.92392169      3.65832950      0.03859172
O       3.75373635      2.58113588      0.85203856
H       2.55867198     -0.69080522      0.57118571
H       3.48244329      0.08840045     -0.49529148
H       1.54994172      1.10275637     -0.83968075
H       1.16037271      1.10313798      2.22763451
H       0.07935840      1.92510530      1.12558492
H       0.64866285     -1.57230818      2.64815363
H      -0.99299993     -3.17861497      1.64957253
H      -2.81787151     -3.32243382     -0.48251966
H      -3.72323655     -1.94424701     -2.34960511
H      -2.69044774      1.36949688     -2.91143724
H      -1.19818223      1.35191724     -1.21696461
H       3.95001977      1.62047132      0.99828830
