33
CN1C(=O)NC(=O)C(C)(C2=CCCCC2)C1=O
C      -3.33377654     -0.72532274      1.92294601
N      -2.62445587     -0.28082469      0.73499232
C      -3.19773579      0.72782313     -0.00839868
O      -4.23939204      1.30287172      0.30162211
N      -2.52935721      1.13445912     -1.11995140
C      -1.20903968      0.91064226     -1.37252903
O      -0.60758689      1.66385555     -2.13743480
C      -0.59619654     -0.32024508     -0.71872583
C      -0.79532416     -1.46890837     -1.73094120
C       0.87165030     -0.00379940     -0.35542882
C       1.93900203     -0.61142318     -0.91642815
C       3.36963414     -0.33006030     -0.55175193
C       3.52340072      0.49056014      0.72557133
C       2.50504898      1.62021224      0.76618752
C       1.07811986      1.07069584      0.70445493
C      -1.33477883     -0.76393613      0.54843372
O      -0.82331742     -1.55533200      1.34729693
H      -2.96940100     -0.14755457      2.77846557
H      -3.14468416     -1.78736067      2.10753811
H      -4.41268561     -0.57473087      1.82366776
H      -2.91530237      1.95881721     -1.56076763
H      -0.34352969     -1.23600613     -2.70245849
H      -1.86065032     -1.65884360     -1.91327559
H      -0.36332824     -2.40834252     -1.36618660
H       1.81435462     -1.36383755     -1.69040852
H       3.90677898     -1.27805391     -0.43319908
H       3.83806118      0.20005544     -1.38975603
H       3.38468556     -0.15793543      1.60004800
H       4.54035776      0.89399318      0.78669480
H       2.67579799      2.30013017     -0.07820398
H       2.63309035      2.20954636      1.68118729
H       0.40093664      1.91480794      0.53277041
H       0.81962327      0.65003886      1.68396895
