40
CC(C)N.CCCCOCC1CO1.FB(F)F
C       1.28787815     -0.45151899      0.46442131
C       0.10482731      0.08246136     -0.29501341
C      -1.18287122     -0.63874981      0.04634671
N      -0.08833673      1.50477218     -0.11027767
C       3.99263247      0.05631528      0.42817420
C       2.67870386      0.63520287     -0.02566140
C       1.55701205     -0.38244724      0.06978382
C       0.26637170      0.25037869     -0.39660553
O      -0.80126831     -0.64350382     -0.32981510
C      -1.92316292      0.05155173     -0.78153640
C      -3.16487421     -0.77348373     -0.77238554
C      -4.31490364     -0.22506565      0.00706916
O      -3.57128949     -1.29342598      0.51301931
F       1.32670749     -0.57475087     -0.03537882
B       0.00417507     -0.01518875      0.12040737
F      -1.16971634     -0.83007911     -0.04543656
F      -0.16116622      1.42001874     -0.03959199
H       2.14980513     -0.70726854     -0.20885129
H       1.06364344     -1.38953663      1.01482385
H       1.71059676      0.31211522      1.17173004
H       0.33748374     -0.05646857     -1.38786967
H      -1.60774803     -1.09194720     -0.88285812
H      -1.93322364      0.08847170      0.45204537
H      -1.06125461     -1.43262485      0.78349343
H       0.34376642      2.07813146     -0.87026925
H      -1.12456672      1.70216267     -0.17772128
H       4.15153474     -0.95479750     -0.02197964
H       4.79232242      0.70241788      0.01056842
H       4.11727232      0.05670116      1.52812258
H       2.77928797      0.92917923     -1.07985995
H       2.47089035      1.51429141      0.60450161
H       1.81286682     -1.28811032     -0.50084533
H       1.44526695     -0.64057347      1.14172971
H       0.43219182      0.61437215     -1.42923895
H      -0.00235884      1.12507635      0.21366807
H      -2.05178820      0.94200487     -0.13559794
H      -1.68471134      0.37612592     -1.81467569
H      -3.45002042     -1.39133651     -1.64349328
H      -4.17392508      0.72821220      0.59250577
H      -5.35805104     -0.38908553     -0.30490242
