27
CCCCCCCCC#N
C      -4.62060244     -0.13643451      0.18431244
C      -3.28075429     -0.72139250     -0.23298379
C      -2.12317937      0.19906694      0.15300146
C      -0.77730211     -0.39297023     -0.26849137
C       0.38123545      0.52808845      0.11782834
C       1.72766929     -0.06414575     -0.30400361
C       2.88648156      0.86085280      0.08349430
C       4.24733852      0.33066129     -0.37061685
C       4.65670356     -0.86533941      0.37794198
N       4.98188475     -1.80996586      0.96812111
H      -5.43403185     -0.81071980     -0.10131496
H      -4.79460705      0.82992725     -0.29963327
H      -4.66466630      0.00895050      1.26840537
H      -3.15234611     -1.70080580      0.24237535
H      -3.28157373     -0.88436791     -1.31702388
H      -2.25864360      1.17854916     -0.32169167
H      -2.12941709      0.36214732      1.23763813
H      -0.64202721     -1.37237479      0.20634991
H      -0.77111155     -0.55579866     -1.35313364
H       0.37541672      0.69061005      1.20251524
H       0.24553108      1.50748000     -0.35687796
H       1.85539980     -1.04499019      0.16872021
H       1.73363670     -0.22421062     -1.38905488
H       2.72640735      1.84235110     -0.38000519
H       2.88723244      1.01713116      1.16968211
H       4.22687820      0.11251436     -1.44439480
H       4.99844729      1.11518560     -0.22102858
