6
O=C([O-])O.[K+]
O      -1.12711577     -0.99535756      0.55134710
C      -0.35413782     -0.16081224      0.03030311
O      -0.54202768      0.70994749     -0.85307399
O       0.90522775     -0.14246685      0.44328404
K       0.00000000      0.00000000      0.00000000
H       1.11805352      0.58868916     -0.17186026
