18
CCc1occc(=O)c1O
C       2.26161703     -0.04338320      1.28815783
C       1.77147774      0.05677573     -0.14915274
C       0.28031939     -0.12117360     -0.24505514
O      -0.14292684     -1.42982784     -0.03434767
C      -1.48616204     -1.71008293     -0.10657260
C      -2.44033607     -0.81586606     -0.37409691
C      -2.02656871      0.57519634     -0.61015454
O      -2.83190041      1.46538601     -0.86412009
C      -0.57256452      0.87717042     -0.53005234
O      -0.17199926      2.18116283     -0.74788834
H       3.34755006      0.08986464      1.32633977
H       2.02750235     -1.02097674      1.72276848
H       1.80374068      0.72816363      1.91634082
H       2.08440636      1.02143604     -0.56483727
H       2.26346659     -0.71188890     -0.75734610
H      -1.67334124     -2.75854003      0.08241634
H      -3.49223493     -1.05624455     -0.42690342
H      -1.00204619      2.67282821     -0.92549607
