33
C=CC(=O)OCCC[Si](OC)(OC)OC
C       3.63908526     -0.01454260      2.37565710
C       4.00125369      0.68421668      1.29145871
C       3.39605585      0.54892768     -0.05151074
O       3.76561624      1.22480275     -0.99953866
O       2.41878291     -0.38817442     -0.06454746
C       1.76796064     -0.54214840     -1.33089405
C       0.71078264     -1.64267292     -1.22185450
C      -0.30369924     -1.46330428     -0.08284132
Si     -1.52165888     -0.02047394     -0.23795422
O      -2.33466484     -0.11395587     -1.69199158
C      -3.01117307      1.04188422     -2.16099773
O      -0.71537528      1.43809477     -0.17789744
C      -0.24609057      1.90569733      1.07598520
O      -2.64176800     -0.05055884      0.99833525
C      -3.62880468     -1.06911395      1.00059518
H       4.13785852      0.14730699      3.32582353
H       2.84954690     -0.75919943      2.34798707
H       4.79525726      1.42134589      1.34845095
H       1.31527221      0.40718644     -1.63568441
H       2.50731765     -0.83413386     -2.08646011
H       1.23204492     -2.59170719     -1.04026674
H       0.19440839     -1.74289722     -2.18412587
H      -0.90349109     -2.37959660     -0.02435491
H       0.21774579     -1.37798160      0.87718108
H      -3.53988537      0.77415530     -3.08123911
H      -3.75513555      1.39497501     -1.43767816
H      -2.30493377      1.84405704     -2.40271877
H       0.32733847      2.82176225      0.90291352
H      -1.08009785      2.15280338      1.74221392
H       0.41947717      1.17983770      1.55627635
H      -3.17682498     -2.06549939      1.05834256
H      -4.25284896     -0.93337842      1.88953799
H      -4.27935234     -0.99771448      0.12179739
