33
O=C1C=Cc2ccccc2/C1=N/Nc1ccc([N+](=O)[O-])cc1Cl
O      -0.48870943     -2.64640345      1.37812690
C      -1.45672317     -1.98922446      1.01554642
C      -2.82531629     -2.47855804      1.27032642
C      -3.89176540     -1.71597885      1.01273807
C      -3.76690167     -0.36313123      0.47037700
C      -4.91824584      0.41398009      0.28328304
C      -4.82522622      1.70584939     -0.24020772
C      -3.58281647      2.23319848     -0.58424627
C      -2.42982206      1.46967248     -0.40502009
C      -2.51939353      0.17381465      0.12342077
C      -1.29168767     -0.64422579      0.30757874
N      -0.14910999     -0.19062105     -0.13425400
N       0.95214823     -0.96806803      0.01645724
C       2.23102361     -0.39972739     -0.16558410
C       2.39244242      0.84210838     -0.80224372
C       3.66203987      1.38314751     -1.02790728
C       4.79566869      0.66850657     -0.62670849
N       6.13065732      1.23104792     -0.86140339
O       7.10888214      0.56465003     -0.49523165
O       6.20110020      2.33944806     -1.41082365
C       4.66894080     -0.57978135     -0.00945748
C       3.39224214     -1.10625095      0.20856381
Cl      3.27745942     -2.65698582      0.96930118
H      -2.91160482     -3.47327159      1.69096107
H      -4.88889552     -2.09566230      1.21843711
H      -5.90097898      0.02463941      0.54192137
H      -5.72479205      2.30100640     -0.38120876
H      -3.51080132      3.23820080     -0.99363563
H      -1.46482829      1.89083426     -0.67931870
H       0.93163479     -1.77382785      0.66006942
H       1.51594367      1.39699637     -1.13082212
H       3.74305270      2.35110867     -1.51843808
H       5.54438270     -1.14649132      0.29940257
