20
COc1c(Cl)c(Cl)c(Cl)c(Cl)c1OC
C       2.61478960     -0.17467138     -0.18374022
O       1.60094698     -0.35748089      0.80755359
C       0.44705276      0.29818813      0.44916747
C       0.13412563      1.52929739      1.04272377
Cl      1.24136091      2.20822035      2.19718999
C      -1.05474063      2.19239566      0.69092262
Cl     -1.43766068      3.72891007      1.41630665
C      -1.93102748      1.61400345     -0.25015816
Cl     -3.39835017      2.43626990     -0.70240658
C      -1.62215343      0.36770968     -0.82305875
Cl     -2.67552631     -0.37987850     -1.98547673
C      -0.44660031     -0.29876838     -0.44923478
O      -0.13706878     -1.50874583     -1.02365560
C      -0.45040365     -2.58458969     -0.13576960
H       3.55080114     -0.57176073      0.22020267
H       2.37958014     -0.72928729     -1.09744061
H       2.76736353      0.88608928     -0.41238850
H      -0.34178951     -3.51926809     -0.69393276
H       0.24324211     -2.61439926      0.71024354
H      -1.48394184     -2.52223387      0.22295202
