18
O=C(O)Cc1c[nH]c(=O)[nH]c1=O
O       2.12056997      0.76371601      1.30616801
C       2.34271797     -0.09417620      0.46743926
O       3.60854368     -0.36330497      0.08643204
C       1.34203967     -1.01158563     -0.19745364
C      -0.03371212     -0.42514067     -0.11922736
C      -1.03160481     -0.90480881      0.63413772
N      -2.25891130     -0.30457896      0.65217202
C      -2.56577268      0.81948897     -0.06460748
O      -3.68089631      1.32798161     -0.02863614
N      -1.55244338      1.32704814     -0.82518944
C      -0.30630538      0.77988378     -0.94732121
O       0.53987253      1.23843491     -1.70763433
H       4.14732571      0.30090929      0.56625592
H       1.62319592     -1.16018627     -1.24604252
H       1.38962642     -1.98255355      0.30791229
H      -0.91886173     -1.78034111      1.26629245
H      -3.00744897     -0.67440099      1.22756326
H      -1.75793517      2.14361444     -1.37826085
