38
COC(=O)Nc1cccc(OC(=O)Nc2cccc(C)c2)c1
C       7.13027102     -0.12092441      2.41547344
O       5.75640737      0.07933697      2.07954202
C       5.47026654     -0.12649049      0.76449388
O       6.30111733     -0.44769105     -0.07079185
N       4.13471284      0.09410054      0.58651409
C       3.37865621     -0.00877230     -0.59332686
C       3.91431696     -0.38630896     -1.82847239
C       3.09934641     -0.46799765     -2.96385061
C       1.74087920     -0.17733010     -2.87363765
C       1.20574195      0.18193180     -1.64034851
O      -0.15747751      0.52101749     -1.61187560
C      -0.97028963     -0.11168195     -0.67197931
O      -0.58603802     -0.96125733      0.11845352
N      -2.23779757      0.39292148     -0.80539096
C      -3.39282429      0.05960537     -0.07696039
C      -3.42173243     -0.89399980      0.94068053
C      -4.61479316     -1.17231548      1.61302118
C      -5.78694581     -0.49703132      1.27702709
C      -5.77537950      0.47222791      0.27038469
C      -7.04042313      1.17786065     -0.11952456
C      -4.57632879      0.73428350     -0.40941552
C       2.01341137      0.28724492     -0.50623203
H       7.42945124     -1.15350519      2.20979786
H       7.24703740      0.06549954      3.48665546
H       7.76539217      0.58459800      1.87062127
H       3.65358315      0.35011831      1.43734917
H       4.96750580     -0.62563146     -1.94272423
H       3.53276240     -0.75940762     -3.91739074
H       1.10987948     -0.23452464     -3.75522393
H      -2.32490749      1.09402756     -1.52738825
H      -2.53445595     -1.44616149      1.23430870
H      -4.62662383     -1.92288797      2.39959689
H      -6.70753734     -0.73279750      1.80624506
H      -7.71904447      1.26578558      0.73544728
H      -7.54635313      0.62523532     -0.91710873
H      -6.82828669      2.19318053     -0.47067843
H      -4.57642572      1.47560515     -1.20527149
H       1.57292560      0.59213609      0.43829533
