50
CC(C)(C)c1ccc(OP(=O)(Oc2ccccc2)Oc2ccccc2)cc1
C       5.39861864      1.15000258     -1.35205005
C       5.03098943      0.06384499     -0.31595635
C       5.68667294     -1.25352280     -0.78325082
C       5.65230123      0.49038304      1.03168061
C       3.51619436     -0.14503483     -0.14429906
C       2.56118138      0.58433633     -0.87182659
C       1.18643807      0.37349890     -0.69583559
C       0.73770248     -0.57380480      0.21556756
O      -0.57564121     -0.85100313      0.46005579
P      -1.82119174     -0.04618217     -0.17603588
O      -1.88050002     -0.04121973     -1.67859655
O      -1.70901587      1.40911916      0.51198827
C      -2.61643443      2.41742530      0.35699134
C      -3.71310964      2.36361999     -0.50056946
C      -4.58467150      3.45282540     -0.58319733
C      -4.36033239      4.59268984      0.18796947
C      -3.26152159      4.64748417      1.04284059
C      -2.39046119      3.56075102      1.12545570
O      -3.09814811     -0.70341294      0.55972867
C      -3.52776552     -1.98672349      0.37867056
C      -4.58736727     -2.39247576      1.19201717
C      -5.09938487     -3.68607847      1.08722454
C      -4.55247748     -4.57634225      0.16556960
C      -3.49650965     -4.17095285     -0.64987785
C      -2.98279775     -2.87556305     -0.54541889
C       1.66255287     -1.31295278      0.94562701
C       3.03305197     -1.10085120      0.76909643
H       6.48616192      1.26299768     -1.43700601
H       5.02248211      0.89905695     -2.35072016
H       4.99436061      2.12936379     -1.07071127
H       5.56921823     -2.05821051     -0.04918416
H       6.76294544     -1.12332907     -0.94631281
H       5.24613088     -1.60088206     -1.72533669
H       6.72728977      0.67958444      0.92910990
H       5.53498472     -0.27756586      1.80402928
H       5.18632230      1.40896051      1.40763371
H       2.85711164      1.33580470     -1.59930147
H       0.50025585      0.96462738     -1.29545156
H      -3.91609050      1.49712519     -1.12283485
H      -5.43899608      3.41169849     -1.25457973
H      -5.04014849      5.43812550      0.11978169
H      -3.08199586      5.53495178      1.64380851
H      -1.53357000      3.60694206      1.79283929
H      -5.01680545     -1.70000770      1.91162995
H      -5.92390655     -3.99758760      1.72302524
H      -4.94984284     -5.58449232      0.08008096
H      -3.07265605     -4.86379417     -1.37290535
H      -2.16607988     -2.59400223     -1.20340903
H       1.32230994     -2.05942257      1.65889728
H       3.72214515     -1.69980484      1.36063669
