35
CCNc1nc(NC(C)(C)C)nc(OC)n1
C       5.20618472     -2.17140159     -0.60544923
C       4.20812078     -1.06221462     -0.31166155
N       2.88058160     -1.49245984     -0.71243091
C       1.86309003     -0.58773765     -0.42679360
N       0.68413608     -1.12944621     -0.14749430
C      -0.30545098     -0.28517247      0.11461524
N      -1.51607854     -0.88637088      0.40517569
C      -2.80119192     -0.26833414      0.06354193
C      -3.10124007      0.93893721      0.96386287
C      -3.88389011     -1.33510771      0.33400141
C      -2.86892620      0.11796400     -1.42112745
N      -0.17375902      1.02886537      0.11816150
C       1.04593585      1.46680142     -0.16746625
O       1.29919881      2.82338479     -0.18816778
C       0.15915571      3.61172914      0.12524472
N       2.09760623      0.71292052     -0.44626463
H       6.21554525     -1.86264449     -0.31650002
H       4.95539410     -3.08279547     -0.05226698
H       5.21500854     -2.41898558     -1.67228458
H       4.51101198     -0.16545247     -0.86522902
H       4.23367259     -0.83263334      0.76056195
H       2.57840353     -2.38585874     -0.33893184
H      -1.41660953     -1.85315687      0.10982365
H      -2.45828504      1.79536799      0.74275340
H      -2.96428191      0.68767108      2.02192972
H      -4.13460322      1.28009797      0.83137939
H      -3.72460809     -2.22771220     -0.28266313
H      -3.86867259     -1.65710146      1.38205431
H      -4.88691466     -0.95241398      0.11403732
H      -3.87305457      0.46382787     -1.69192185
H      -2.17268887      0.92601528     -1.66854663
H      -2.62310955     -0.73527209     -2.06389615
H      -0.19870288      3.40879770      1.14073940
H       0.45915059      4.66338600      0.08424513
H      -0.64012862      3.46650549     -0.61003852
