42
CCCCCCOC(=O)n1cnc2c1c(=O)n(C)c(=O)n2C
C       7.08101348      0.88885923      0.59288741
C       6.09516986     -0.22876830      0.29201731
C       4.66638224      0.30130354      0.17468608
C       3.67791451     -0.82588611     -0.12803523
C       2.25034539     -0.29624925     -0.24529686
C       1.25916894     -1.41627911     -0.54512749
O      -0.07309800     -0.88625806     -0.59831554
C      -0.48267162     -0.43594080     -1.80037667
O       0.15965655     -0.36822309     -2.83739144
N      -1.79030113      0.05912229     -1.74070199
C      -2.35198052      0.82456852     -2.75106532
N      -3.54136115      1.29167914     -2.44158341
C      -3.78781803      0.77259005     -1.21366905
C      -2.77214137     -0.02508242     -0.76933643
C      -2.87525087     -0.76274225      0.44603414
O      -2.10406120     -1.65692979      0.77859431
N      -3.99954050     -0.41596846      1.20659811
C      -4.16617066     -1.08346379      2.48401998
C      -5.07766104      0.36810192      0.75719672
O      -6.10172683      0.49657903      1.43339931
N      -4.93856815      0.97425815     -0.48954189
C      -6.00362738      1.80259695     -1.02854285
H       6.83625842      1.38401702      1.53800642
H       8.09615810      0.48756195      0.67259241
H       7.07479586      1.64191467     -0.20159700
H       6.14952401     -0.98016624      1.08835286
H       6.38673789     -0.72368046     -0.64166093
H       4.61847565      1.05549225     -0.62029955
H       4.38116788      0.79895195      1.10961258
H       3.96281756     -1.32312239     -1.06321667
H       3.72591123     -1.57994805      0.66697018
H       1.95465162      0.20896748      0.68265036
H       2.19542880      0.46609114     -1.03185624
H       1.27387402     -2.15863711      0.26022001
H       1.51052302     -1.94337902     -1.47341548
H      -1.81809280      1.02379248     -3.67318646
H      -4.69272401     -0.43680941      3.19257802
H      -4.75838352     -1.99025328      2.32482685
H      -3.20035037     -1.35962122      2.91721290
H      -5.60903151      2.80169561     -1.23919288
H      -6.83930258      1.89896842     -0.33050622
H      -6.37211178      1.35029679     -1.95472455
