21
CC(C)c1ccccc1Br
C      -2.07331832      0.10347772     -1.10350865
C      -1.25970502      0.60602476      0.09409980
C      -1.87583107      0.12341035      1.41177135
C       0.20614937      0.20548791     -0.01781834
C       0.54311478     -1.16443409     -0.03340285
C       1.86939982     -1.59018716     -0.13415526
C       2.89358683     -0.65581326     -0.22197933
C       2.58948601      0.70343281     -0.20889442
C       1.25934308      1.13528445     -0.10788852
Br      0.99012058      3.01828858     -0.10169834
H      -2.11748009     -0.99012095     -1.14347359
H      -1.63948942      0.45599419     -2.04591280
H      -3.10313212      0.47334037     -1.04994874
H      -1.35911157      1.69460143      0.09327885
H      -1.30068016      0.49017958      2.26925574
H      -2.90183860      0.49366391      1.51376270
H      -1.91187714     -0.96936608      1.47534955
H      -0.23495262     -1.92263540      0.03370437
H       2.09895845     -2.65279480     -0.14374392
H       3.92695874     -0.98275208     -0.30051594
H       3.40029847      1.42491776     -0.27828167
