42
COc1ccc2c3c1O[C@H]1C[C@@H](O)C=C[C@@]31CCN(C)C2
C       4.41137540     -2.62734072      0.35430316
O       3.62789907     -1.44540334      0.43769824
C       2.28827967     -1.57266731      0.21255942
C       1.60875973     -2.75642158     -0.07415725
C       0.21636659     -2.75214884     -0.29223997
C      -0.53794188     -1.56671836     -0.23247090
C       0.15277933     -0.39807386      0.05858664
C       1.52968540     -0.41407442      0.28407616
O       2.04738026      0.83204565      0.56158829
C       0.87013632      1.60438240      0.91522685
C       1.12519835      3.08205105      0.61476907
C       1.24739091      3.35265649     -0.88462013
O       2.52002971      2.94886850     -1.36986053
C       0.21271008      2.64171619     -1.69593690
C      -0.51701673      1.61228824     -1.23823783
C      -0.35295403      1.00668520      0.14808028
C      -1.62414233      1.15290738      1.00052233
C      -2.89006780      0.47398071      0.46490424
N      -2.85564620     -0.99720061      0.51618302
C      -4.22325227     -1.51657558      0.38764614
C      -2.01381838     -1.57932970     -0.54374925
H       4.36457822     -3.06288705     -0.64933250
H       5.45264184     -2.35332777      0.54957701
H       4.11056266     -3.35494221      1.11535588
H       2.12661999     -3.70768262     -0.14000547
H      -0.27329529     -3.69779188     -0.51962273
H       0.74984605      1.49246611      2.00326037
H       0.29863310      3.67498589      1.02508544
H       2.04981256      3.39704344      1.11347648
H       1.16275782      4.43107941     -1.05645386
H       2.66602386      2.03440235     -1.05495884
H       0.07920258      2.98423200     -2.71912405
H      -1.23216688      1.14906457     -1.91343646
H      -1.84668265      2.22229468      1.12100511
H      -1.44158000      0.77239422      2.01581586
H      -3.70259353      0.82313400      1.11731043
H      -3.14325082      0.83523108     -0.53938189
H      -4.67732546     -1.24802987     -0.57322086
H      -4.86110449     -1.13337648      1.19225151
H      -4.23429673     -2.60817872      0.48473610
H      -2.19145976     -1.10066004     -1.51564028
H      -2.30007431     -2.63107865     -0.68156831
