40
O=C(O)c1ccccc1C(=O)OCCOC(=O)c1ccccc1C(=O)O
O       2.78954275     -2.19206139     -1.80089030
C       3.63664996     -2.25919276     -0.93218650
O       3.94649696     -3.42780004     -0.34197159
C       4.44290647     -1.14151747     -0.39401498
C       5.76154069     -1.37947190      0.02746092
C       6.56961065     -0.32218873      0.45314193
C       6.07418353      0.98052451      0.45220739
C       4.76423746      1.22725895      0.04031195
C       3.94171677      0.16602564     -0.36837432
C       2.55384898      0.50185858     -0.73339271
O       2.25367434      1.41315356     -1.48508008
O       1.71124746     -0.26538410     -0.00156982
C       0.31569603     -0.06536020     -0.27217725
C      -0.23440866      1.12231983      0.51393153
O      -1.63066815      1.32281097      0.24793094
C      -2.46900597      0.50719351      0.93187985
O      -2.16130848     -0.34004657      1.75193466
C      -3.85573878      0.79589236      0.52145086
C      -4.31181264      2.12331429      0.54118360
C      -5.64760476      2.40892443      0.25177604
C      -6.53464322      1.37467375     -0.04598837
C      -6.08532634      0.05291901     -0.06989935
C      -4.74041607     -0.23900803      0.19955765
C      -4.32291297     -1.64875615      0.10021395
O      -4.97081367     -2.61054528      0.46590022
O      -3.16662599     -1.77565345     -0.57262329
H       3.34020923     -4.07413177     -0.76182374
H       6.17306025     -2.38684269      0.01058890
H       7.59111846     -0.51512620      0.77402656
H       6.70756499      1.80443423      0.77376249
H       4.38060713      2.24613696      0.04548107
H      -0.20123522     -0.98659007      0.01628016
H       0.13306567      0.05182392     -1.34793830
H       0.28290019      2.04280929      0.22360874
H      -0.04996627      1.00681202      1.58947850
H      -3.63434829      2.93508805      0.79793418
H      -5.99973858      3.43811280      0.27049959
H      -7.57737891      1.59736675     -0.26205906
H      -6.78182943     -0.74891160     -0.30932531
H      -2.99409557     -2.74086501     -0.57311279
