43
O=C(Nc1ccccc1)Nc1ccccc1NS(=O)(=O)c1ccccc1
O      -2.29970492     -1.47169355      1.10220102
C      -1.89692929     -0.44264667      0.57697156
N      -2.49769438      0.20554078     -0.49306250
C      -3.71309074     -0.11656728     -1.12799631
C      -4.60872927     -1.07811434     -0.65757022
C      -5.80080345     -1.33195665     -1.34407848
C      -6.10840179     -0.62380888     -2.50342706
C      -5.22495642      0.34197498     -2.97735686
C      -4.03422026      0.59537299     -2.29140885
N      -0.75713585      0.24367303      0.95191217
C       0.27355121     -0.14248276      1.82980297
C       0.28395675     -1.37589134      2.48756082
C       1.33487555     -1.71958476      3.34280241
C       2.38849588     -0.83524761      3.55045192
C       2.39533490      0.39763243      2.90122230
C       1.34795612      0.74958043      2.04012073
N       1.44613718      2.03015565      1.39500704
S       1.63522071      2.14491447     -0.27836554
O       0.36814185      1.80012328     -0.89578075
O       2.23634531      3.44033674     -0.51500481
C       2.83639179      0.90306012     -0.67469289
C       4.19767340      1.20969764     -0.57961718
C       5.14370100      0.23746228     -0.90371460
C       4.72952245     -1.02624542     -1.32824178
C       3.36962284     -1.32129234     -1.43848579
C       2.41685437     -0.35428956     -1.11947636
H      -1.92708074      0.90629900     -0.95058176
H      -4.41181834     -1.64501654      0.24686475
H      -6.48820672     -2.08470143     -0.96663486
H      -7.03557298     -0.82379702     -3.03370473
H      -5.46101153      0.89917335     -3.88000039
H      -3.36106707      1.35496201     -2.68077052
H      -0.64074344      1.15390486      0.52132274
H      -0.51620859     -2.09812781      2.35508252
H       1.32367341     -2.68375500      3.84635728
H       3.20367820     -1.10809896      4.21603792
H       3.22999034      1.07244268      3.06965055
H       2.00830079      2.73539585      1.87139451
H       4.52780010      2.19608583     -0.26229384
H       6.20495664      0.46405283     -0.83245864
H       5.46903119     -1.78266548     -1.58147063
H       3.05240328     -2.30555521     -1.77579614
H       1.35976050     -0.59363055     -1.21277171
