22
Clc1ccc(Cl)c(-c2c(Cl)ccc(Cl)c2Cl)c1
Cl      3.70104932     -2.56015250     -0.75939725
C       2.83821875     -1.09925205     -0.47650941
C       3.52851186      0.10741016     -0.40322651
C       2.82701992      1.29148206     -0.17447015
C       1.43702768      1.26506653     -0.01958602
Cl      0.63091105      2.77015974      0.26048917
C       0.72599550      0.05034433     -0.09084404
C      -0.74223773     -0.01866046      0.06716405
C      -1.59528887      0.10073238     -1.05140252
Cl     -0.97250519      0.31519661     -2.65387040
C      -2.98511343      0.04827466     -0.91252549
C      -3.55491159     -0.12518479      0.34591276
C      -2.73793468     -0.24876792      1.47077813
Cl     -3.52549436     -0.46629809      2.99554954
C      -1.33893938     -0.19742032      1.33933759
Cl     -0.32926617     -0.35896133      2.74966401
C       1.45170122     -1.13367873     -0.32279044
H       4.60867888      0.13381748     -0.52269356
H       3.36892223      2.23263092     -0.11762918
H      -3.62989359      0.14413629     -1.78386369
H      -4.63789491     -0.16311618      0.44328115
H       0.93144350     -2.08775880     -0.38336772
