29
CC(C)(C)S(=O)(=O)C(C)(C)C
C       2.82273358     -0.28976249      0.57595206
C       1.52901448     -0.12290427     -0.25557805
C       1.25427945     -1.44277256     -0.97461022
C       1.77942454      1.00334518     -1.26925451
S       0.18606957      0.32059778      0.92958493
O       0.24405110     -0.65262763      2.00931377
O       0.37839697      1.72510586      1.25625145
C      -1.49905856      0.17451841      0.19214841
C      -1.59513239      0.85548478     -1.17225385
C      -2.47321455      0.89198368      1.15612875
C      -1.94669711     -1.29155672      0.09766790
H       2.73543446     -1.11313933      1.29349042
H       3.04965736      0.61929035      1.14440608
H       3.68379684     -0.50498434     -0.06710618
H       0.44568629     -1.34852098     -1.70270930
H       0.99288052     -2.23784776     -0.26853599
H       2.13693323     -1.77622898     -1.53311009
H       2.64066723      0.76878246     -1.90610147
H       1.99270522      1.95549853     -0.77177164
H       0.93180681      1.16509148     -1.93550551
H      -2.63704766      0.91453092     -1.50858591
H      -1.05313310      0.30189010     -1.94206182
H      -1.20227850      1.87706295     -1.13971342
H      -3.51002656      0.80439507      0.81171043
H      -2.41947521      0.46651453      2.16464311
H      -2.24377391      1.96026103      1.23721038
H      -2.98358934     -1.35964142     -0.25240555
H      -1.89834318     -1.79290551      1.07023446
H      -1.34176760     -1.87146111     -0.59966909
