30
O=C1CN=C(c2ccccc2)c2cc(Cl)ccc2N1
O      -3.45546478     -2.43058130      1.45111878
C      -2.70648655     -1.76461880      0.73452079
C      -1.73752165     -2.39656881     -0.24903153
N      -0.36212011     -2.05860818      0.09303532
C       0.04471592     -0.84138434     -0.03147451
C       1.46553008     -0.56646680      0.35823503
C       1.81392773      0.59418532      1.06073580
C       3.14628799      0.82273717      1.41072721
C       4.12811441     -0.10863502      1.07204237
C       3.78104001     -1.27517569      0.39095599
C       2.45089250     -1.50804364      0.03871508
C      -0.79367162      0.29764649     -0.51554240
C      -0.20083162      1.23424021     -1.37985039
C      -0.87954936      2.40269153     -1.71550843
Cl     -0.13916125      3.55201398     -2.75823117
C      -2.14327933      2.65685608     -1.19337540
C      -2.74880204      1.71684191     -0.35662330
C      -2.10005723      0.51303593     -0.04628346
N      -2.82474564     -0.39893349      0.73389417
H      -1.99448277     -2.11431601     -1.27644308
H      -1.85308375     -3.48409592     -0.18408947
H       1.06018043      1.31784563      1.35807859
H       3.41851015      1.72249148      1.95708362
H       5.16425854      0.06859638      1.35029216
H       4.54417447     -2.00773131      0.14039791
H       2.18396836     -2.42472471     -0.48242121
H       0.79770029      1.06507037     -1.77728905
H      -2.66887445      3.57550914     -1.44309252
H      -3.75006761      1.92101410      0.01764184
H      -3.64110113     -0.08089169      1.24178123
