23
Cn1cncc1CC(N)C(=O)O
C       2.07655353      1.39665514     -0.36786279
N       1.86051322     -0.02809318     -0.30151119
C       2.81911926     -0.95304018     -0.00005763
N       2.33481286     -2.17287283     -0.02113128
C       1.01789623     -2.03394558     -0.36466702
C       0.68282825     -0.70345976     -0.52267166
C      -0.62664352     -0.06331683     -0.85982972
C      -1.67731173     -0.24463775      0.24941143
N      -1.25125903      0.35274380      1.56107899
C      -2.96937761      0.45081902     -0.19926827
O      -3.67586820      0.09257994     -1.12727020
O      -3.22224560      1.55498401      0.55247430
H       3.11412884      1.62305805     -0.10906514
H       1.40568022      1.88381718      0.34400608
H       1.86936522      1.73082911     -1.38748098
H       3.84526262     -0.69016040      0.22351921
H       0.37544033     -2.89942488     -0.47054610
H      -0.49718576      1.00363165     -1.07896735
H      -0.99949384     -0.51172304     -1.79035322
H      -1.89849467     -1.30451058      0.41967413
H      -1.80222568     -0.10926519      2.29515020
H      -0.29803663      0.01714781      1.74514739
H      -2.48345829      1.60818446      1.21022083
