34
O=C(OCC1CO1)c1ccc(C(=O)OCC2CO2)cc1
O      -3.06179355     -0.47394762     -2.19392097
C      -2.74127239     -0.29221626     -1.03053878
O      -3.58135551      0.02264302     -0.01524306
C      -4.95286624      0.14075101     -0.41332029
C      -5.75824598      0.46384654      0.80031932
C      -5.94725270      1.88571693      1.25717566
O      -6.97399519      1.17752318      0.54499616
C      -1.33888587     -0.39261095     -0.54095085
C      -0.33709194     -0.71884366     -1.46599590
C       0.99802129     -0.82586759     -1.05989184
C       1.34638547     -0.60678094      0.27939132
C       2.74899944     -0.70554306      0.76877120
O       3.06877748     -0.51795000      1.93145475
O       3.58872797     -1.01575194     -0.24772372
C       4.97147979     -1.16020028      0.11658495
C       5.63442480      0.17607355      0.13734795
C       5.99924151      0.88640916     -1.13884386
O       6.98016015      0.18885909     -0.35611099
C       0.34448827     -0.28078792      1.20450408
C      -0.99064018     -0.17390906      0.79842773
H      -5.04840820      0.92833796     -1.17057512
H      -5.29893728     -0.81088616     -0.83280068
H      -5.77731302     -0.33286402      1.53084904
H      -5.42914017      2.67875644      0.73273342
H      -6.10847258      2.06908124      2.31196870
H      -0.59193086     -0.89239993     -2.51088579
H       1.75148725     -1.08146985     -1.80150513
H       5.07664513     -1.67089929      1.08112318
H       5.42726532     -1.81261784     -0.63669461
H       5.40688635      0.75924001      1.01929529
H       6.03296034      1.96856340     -1.13133583
H       5.70696991      0.44759487     -2.08447826
H       0.59907797     -0.10816488      2.24956057
H      -1.74439679      0.08031485      1.54009921
