26
COC1COC2C(OC)COC12
C       3.17706788      0.96322572     -1.24235888
O       2.18264191     -0.02899418     -1.46608151
C       1.72126802     -0.62876402     -0.24697317
C       0.98304554     -1.92231294     -0.58441752
O      -0.40520445     -1.60079469     -0.80539520
C      -0.61904432     -0.24427938     -0.37188221
C      -1.70762580     -0.17825102      0.67868734
O      -2.20174770      1.15994046      0.83331141
C      -3.21830929      1.47728609     -0.10972987
C      -0.94097174     -0.56785777      1.94065061
O       0.43517916     -0.17302647      1.76814578
C       0.61990318      0.19399974      0.38794061
H       3.47220409      1.37541983     -2.21107073
H       2.79000969      1.77685912     -0.62316270
H       4.05927435      0.51901248     -0.77151184
H       2.56810814     -0.84028972      0.41546610
H       1.37281996     -2.41742297     -1.47861010
H       1.01718730     -2.62400921      0.25576990
H      -0.79762417      0.37115673     -1.25824165
H      -2.53916317     -0.87256555      0.51380138
H      -3.53779944      2.50797703      0.06640448
H      -2.84373436      1.40102337     -1.13398142
H      -4.08189198      0.81898792      0.02506377
H      -1.33047052     -0.08892449      2.84372713
H      -0.94492078     -1.65383545      2.08239339
H       0.76979850      1.27643937      0.34170409
