62
CCCCCCCCCCCCN(CCCN)CCCN
C       9.14919214     -0.97069156      1.19324240
C       7.67938668     -0.78789525      0.84663861
C       7.31517662      0.69235717      0.72582594
C       5.82141889      0.93319057      0.48433680
C       5.33154525      0.39101119     -0.86092377
C       3.90209091      0.82277735     -1.20393019
C       2.85043706      0.25418083     -0.24855691
C       1.43400779      0.61489131     -0.70538909
C       0.38299948      0.04818475      0.25168178
C      -1.04846950      0.46906655     -0.09519305
C      -1.55483599     -0.12711799     -1.41330479
C      -2.99802091      0.29221646     -1.74415585
N      -3.97936442     -0.08183427     -0.70649432
C      -4.28600890     -1.52617710     -0.76201673
C      -4.80000892     -2.04142162      0.59065026
C      -4.99930332     -3.55934186      0.61442722
N      -6.09637176     -4.01299802     -0.23356892
C      -5.20959619      0.72375338     -0.83283276
C      -5.06877401      2.14812903     -0.27183127
C      -4.71650619      2.15970677      1.21668035
N      -4.67526244      3.52664388      1.73622450
H       9.79109585     -0.53227363      0.42257042
H       9.39045374     -2.03539918      1.27127341
H       9.38872030     -0.49748800      2.15078540
H       7.06587418     -1.26095454      1.62190569
H       7.47487402     -1.30852633     -0.09487642
H       7.89722885      1.15268221     -0.08183592
H       7.59894784      1.20812803      1.65168554
H       5.24964005      0.48365552      1.30415023
H       5.63897422      2.01417554      0.52386427
H       5.99669980      0.74931766     -1.65623948
H       5.38600268     -0.70352042     -0.86968603
H       3.84042771      1.91782477     -1.21335932
H       3.67978645      0.48586107     -2.22413347
H       3.01177083      0.64546652      0.76215564
H       2.95174135     -0.83654721     -0.19624524
H       1.27385302      0.22216665     -1.71542810
H       1.33276723      1.70552227     -0.75943717
H       0.45026364     -1.04635031      0.27180272
H       0.60286625      0.39622553      1.26875929
H      -1.11187998      1.56328933     -0.13371964
H      -1.69815804      0.14269012      0.72553753
H      -0.91868284      0.21237171     -2.23884505
H      -1.46216306     -1.21804222     -1.38453829
H      -2.97834109      1.37976237     -1.87818863
H      -3.28857552     -0.12732196     -2.71630917
H      -5.00213319     -1.73517946     -1.56634937
H      -3.38426856     -2.10212219     -0.99641395
H      -5.73922756     -1.55148093      0.87118131
H      -4.06973063     -1.78334487      1.36878760
H      -5.21276639     -3.87209219      1.64249763
H      -4.07726948     -4.06889632      0.31422367
H      -6.95198455     -3.51891859      0.01761248
H      -5.91041802     -3.78908240     -1.20888922
H      -5.53174604      0.77129860     -1.88145886
H      -6.03687667      0.25490381     -0.28751195
H      -4.32341893      2.71836443     -0.83765599
H      -6.02612980      2.66440020     -0.42195001
H      -3.74187072      1.69296974      1.39058545
H      -5.45892635      1.58995137      1.78584497
H      -5.56321108      3.99070305      1.55202856
H      -3.96794178      4.05717871      1.22910522
