22
Clc1ccc2c(c1)Oc1ccc(Cl)cc1O2
Cl     -5.07188789      1.49231335     -0.29508872
C      -3.56840114      0.65554523     -0.27743706
C      -3.54744836     -0.73049976     -0.44567600
C      -2.32938412     -1.41349507     -0.43199490
C      -1.14297445     -0.70395348     -0.25013740
C      -1.17094829      0.68098341     -0.08259716
C      -2.38391112      1.36746574     -0.09544045
O      -0.02802991      1.41858139      0.09922384
C       1.14297321      0.70395305      0.10525832
C       2.32938463      1.41349419      0.28710534
C       3.54744752      0.73049789      0.30079238
C       3.56840085     -0.65554655      0.13255470
Cl      5.07189405     -1.49230343      0.15020306
C       2.38391014     -1.36746665     -0.04944310
C       1.17094719     -0.68098342     -0.06228442
O       0.02802908     -1.41858104     -0.24410796
H      -4.47339482     -1.28208428     -0.58733876
H      -2.30651656     -2.49203186     -0.56238202
H      -2.39970330      2.44532533      0.03542207
H       2.30652278      2.49203056      0.41749315
H       4.47339350      1.28208152      0.44246120
H       2.39969701     -2.44532611     -0.18030754
