25
O=c1[nH]c(=O)n(Cc2ccc(Cl)cc2Cl)cc1F
O       4.47510699      1.08501360      1.38284446
C       3.50963999      0.63073846      0.78049947
N       3.02232557      1.20581030     -0.36422082
C       1.94295433      0.77713298     -1.09721835
O       1.59717586      1.39390121     -2.10181605
N       1.30378744     -0.36408703     -0.61869759
C       0.13647119     -0.87909746     -1.34146471
C      -1.17326127     -0.41738705     -0.73564357
C      -1.58562871      0.91121097     -0.95722981
C      -2.77660354      1.39585932     -0.41292957
C      -3.57221354      0.55765608      0.36036543
Cl     -5.03962211      1.15248931      1.03219288
C      -3.18911789     -0.75973254      0.59246295
C      -1.99594101     -1.24534037      0.04713738
Cl     -1.59679777     -2.89406409      0.37656015
C       1.73677183     -1.01036856      0.52652126
C       2.78289944     -0.57219604      1.22571624
F       3.21595922     -1.18916048      2.33992579
H       3.49459005      2.03269623     -0.69586696
H       0.17101340     -0.54411654     -2.38624813
H       0.21276849     -1.97038758     -1.39556414
H      -0.97676772      1.58185438     -1.56382416
H      -3.07422774      2.42525889     -0.59785826
H      -3.81919273     -1.40795098      1.19634274
H       1.19791023     -1.89573303      0.84570944
