58
CCCCCCCCCCCC(=O)OCC(O)[C@H]1OC[C@@H](O)[C@@H]1O
C       6.31315496     -0.45836644      3.15482571
C       7.15559602      0.50845429      2.33734548
C       6.70565363      0.62589998      0.87911764
C       5.31146811      1.23944036      0.72631373
C       4.93828668      1.53889013     -0.72965023
C       4.90619206      0.32802351     -1.66797386
C       3.97965751     -0.81632616     -1.24385080
C       2.51244580     -0.43794673     -1.01375444
C       1.81995960      0.10208362     -2.26753302
C       0.35909490      0.49655066     -2.02936999
C      -0.54667771     -0.68817140     -1.69522873
C      -1.99687710     -0.27540922     -1.59845524
O      -2.42336930      0.86645204     -1.69979991
O      -2.76771136     -1.37486289     -1.36562241
C      -4.17978908     -1.11959717     -1.23108082
C      -4.50822853     -0.53403760      0.15241377
O      -4.22074799     -1.51579912      1.16211639
C      -5.98125549     -0.12253582      0.24451558
O      -6.82511312     -1.28926184      0.09131108
C      -7.92152568     -1.16161415      1.01965386
C      -7.85406265      0.23763436      1.60380382
O      -8.40037530      0.31873468      2.91081395
C      -6.35877364      0.49576964      1.58839321
O      -6.08669932      1.88876215      1.67642959
H       5.28723396     -0.09720842      3.27151274
H       6.28156465     -1.44633685      2.68510136
H       6.73945121     -0.57302141      4.15649660
H       7.14299009      1.49572243      2.81304863
H       8.19620173      0.16296937      2.35275533
H       6.73568351     -0.36620287      0.41504198
H       7.43291834      1.24933160      0.34493247
H       4.55700442      0.58278816      1.17217425
H       5.27198500      2.18212690      1.28672336
H       5.65140045      2.26842843     -1.13453251
H       3.96126923      2.03643006     -0.74434255
H       4.62195935      0.67346864     -2.66925055
H       5.92146892     -0.07232396     -1.77739744
H       4.02656688     -1.59908526     -2.01174346
H       4.36799935     -1.27412761     -0.32606974
H       1.99289628     -1.33964328     -0.66969975
H       2.43340331      0.29264025     -0.20105629
H       2.34822792      0.99325822     -2.62442310
H       1.87389792     -0.64225319     -3.07106535
H      -0.01426521      0.99019284     -2.93588995
H       0.30420194      1.24419506     -1.22811243
H      -0.26298555     -1.12557811     -0.73268809
H      -0.46019584     -1.45042054     -2.47751885
H      -4.67241481     -2.08934270     -1.36279373
H      -4.51773823     -0.46499006     -2.04353517
H      -3.86796198      0.32642673      0.36837985
H      -4.83754343     -2.25701931      1.00465802
H      -6.21640693      0.57292610     -0.57136901
H      -8.86362974     -1.34221770      0.49420583
H      -7.81267661     -1.93363039      1.78879592
H      -8.38331522      0.95564340      0.96623643
H      -8.16386634      1.20586231      3.24204384
H      -5.88415743     -0.00258268      2.44199230
H      -5.12147013      1.99080694      1.76527436
