19
NC(CCC(=O)O)C(=O)O
N      -1.82368734      0.66856217      0.89431305
C      -1.26255786     -0.62554067      0.40447954
C       0.26356666     -0.66769668      0.52449112
C       0.99303957      0.42620175     -0.26207336
C       2.48166113      0.33940588     -0.06073588
O       3.08036096     -0.37176276      0.72731322
O       3.14846264      1.18986557     -0.86429490
C      -1.70413642     -0.84101313     -1.05224860
O      -1.56853124     -1.87638342     -1.68283990
O      -2.24286765      0.29216165     -1.57450866
H      -2.80340976      0.50229312      1.15464833
H      -1.37096056      0.89173718      1.78637128
H      -1.70444737     -1.42838277      1.00557708
H       0.53933937     -0.59748142      1.58519388
H       0.62300234     -1.64761457      0.18296159
H       0.67057109      1.41966428      0.06604484
H       0.78904590      0.31763372     -1.33258275
H       4.09239356      1.03820906     -0.64764819
H      -2.20084501      0.97014103     -0.85446168
