20
CCOc1ccc(O)cc1
C      -3.34680792     -0.59649651      1.24752660
C      -2.23954022     -0.17745388      0.29707926
O      -0.99042414     -0.45405159      0.92798290
C       0.14218109     -0.14458978      0.22664468
C       0.19088590      0.41726641     -1.05029156
C       1.42493500      0.68290060     -1.65183257
C       2.60329141      0.38706624     -0.97733083
O       3.78150070      0.66377011     -1.60413253
C       2.57178562     -0.17239221      0.29418545
C       1.33745105     -0.43649083      0.89223607
H      -4.33022262     -0.40448710      0.80935608
H      -3.26889274     -0.05175142      2.19429390
H      -3.26762560     -1.66243276      1.48563658
H      -2.33250419      0.89505459      0.09070831
H      -2.33120953     -0.75005766     -0.63309674
H      -0.70807349      0.66089308     -1.60563237
H       1.46502596      1.12014308     -2.64555507
H       4.51119609      0.40612168     -1.01722131
H       3.48365919     -0.40848044      0.83241476
H       1.30338845     -0.87420043      1.88702838
