22
NC(=O)C[NH+](CC(=O)[O-])CC(=O)[O-]
N       1.78629999     -1.26253809      1.92966264
C       1.49089800     -1.42242818      0.60318502
O       2.36181324     -1.74806848     -0.19971543
C       0.04244815     -1.11124232      0.20733868
N      -0.10185159      0.14619579     -0.62612851
C      -1.56929411      0.36108741     -1.04674071
C      -1.98121133     -0.52455920     -2.25602579
O      -0.97033717     -0.96373615     -2.88969254
O      -3.21079032     -0.71294202     -2.42530047
C       0.53043422      1.39421514     -0.01750522
C       0.12424182      1.79328502      1.43137593
O       0.45919218      0.94751551      2.31784049
O      -0.49762898      2.88125020      1.54450458
H       1.27108671     -0.49091091      2.39516972
H       2.77157165     -1.27115237      2.15143006
H      -0.59944977     -1.01383115      1.08851314
H      -0.32794196     -1.95077107     -0.39066513
H       0.34291062     -0.08490185     -1.53554754
H      -1.66491945      1.40654345     -1.35822856
H      -2.19758825      0.18304199     -0.16865370
H       0.32667046      2.21617135     -0.71317141
H       1.61344589      1.22777594     -0.04164524
