24
COC(=O)c1c(Cl)c(Cl)c(C(=O)OC)c(Cl)c1Cl
C      -4.90642931     -0.19526476      0.02297595
O      -3.50838485     -0.36760355      0.26119501
C      -2.72683498      0.18531458     -0.69365924
O      -3.06391297      0.78960497     -1.69412664
C      -1.33072414     -0.06369711     -0.32688502
C      -0.69444700     -1.22418472     -0.79344606
Cl     -1.57199264     -2.36410174     -1.76838669
C       0.64907891     -1.45194568     -0.46038088
Cl      1.47121308     -2.87829658     -1.01681954
C       1.33072410     -0.51128948      0.32688331
C       2.72683434     -0.76030222      0.69365914
O       3.06391051     -1.36459196      1.69412760
O       3.50838594     -0.20738593     -0.26119480
C       4.90642993     -0.37972647     -0.02297413
C       0.69444698      0.64919814      0.79344419
Cl      1.57199200      1.78911384      1.76838630
C      -0.64907878      0.87695943      0.46037868
Cl     -1.47121287      2.30331073      1.01681694
H      -5.16378118      0.86849438      0.00774477
H      -5.19717751     -0.67823927     -0.91523869
H      -5.45116161     -0.67239046      0.84225175
H       5.16378069     -1.44348603     -0.00774490
H       5.45116347      0.09739953     -0.84224838
H       5.19717787      0.10324610      0.91524132
