14
CCN(C)N=O
C       1.84386555      0.42114273     -0.53066512
C       0.67538756     -0.44043740     -0.05353895
N      -0.59265141      0.30866600      0.01116877
C      -1.71081475     -0.63630863      0.15373411
N      -0.58417795      1.24714845      0.93571718
O      -1.52180388      2.03612815      0.77456799
H       2.07906916      1.21910525      0.18096728
H       2.74064708     -0.19693429     -0.64403937
H       1.62561967      0.87670915     -1.50245523
H       0.57724369     -1.26268355     -0.77451064
H       0.92188447     -0.89565470      0.91545533
H      -1.65463097     -1.20323993      1.09139220
H      -2.68013889     -0.12359920      0.12073975
H      -1.71949932     -1.35004202     -0.67853331
