31
Nc1nc([O-])c2ncn(COC(CO)CO)c2n1.[Na+]
N       2.40962052      0.82679990      2.75532302
C       2.27669717      0.03776492      1.61775596
N       3.01157243     -1.08085392      1.59983740
C       2.99344741     -1.88877578      0.50122576
O       3.67737351     -2.95357704      0.45334442
C       2.18184044     -1.50306504     -0.58590594
N       1.88591458     -2.04689330     -1.83412727
C       1.02333510     -1.22214680     -2.38174970
N       0.74992364     -0.16561967     -1.56421446
C      -0.16445344      0.91381072     -1.84909057
O      -1.51671524      0.51042048     -1.61348104
C      -1.86256346      0.26432653     -0.23757649
C      -2.03946951      1.56202387      0.57359550
O      -0.81347239      2.26225943      0.78051721
C      -3.17722007     -0.53079215     -0.25216315
O      -3.54766167     -0.97803790      1.04722858
C       1.48319371     -0.31186832     -0.42052441
N       1.48092321      0.51246712      0.64422861
Na      0.00000000      0.00000000      0.00000000
H       2.43634959      1.78932050      2.45421193
H       3.25850970      0.47545498      3.18910183
H       0.56747944     -1.34847809     -3.35401438
H       0.11752323      1.81459475     -1.30312972
H      -0.07116488      1.14400396     -2.91609682
H      -1.10579937     -0.36149950      0.24294494
H      -2.46055623      1.35446142      1.56208408
H      -2.71157426      2.24852813      0.04873934
H      -0.13429051      1.61131503      1.06562340
H      -3.99346320      0.08066517     -0.65268179
H      -3.09081426     -1.40483066     -0.90776774
H      -2.86448522     -1.61177874      1.33676148
