28
CCN(C(C)C)C(C)C
C      -1.24554865      2.44226019     -0.38515336
C      -0.13047012      1.58972178      0.21568332
N      -0.09111731      0.22011664     -0.31736737
C      -1.26000000     -0.60620541      0.04928679
C      -1.48096507     -1.72208429     -0.98317810
C      -1.23292850     -1.18993194      1.46476574
C       1.22327281     -0.44444451     -0.18313601
C       1.99099653     -0.17263073      1.11891155
C       2.09216790     -0.05097553     -1.38620962
H      -1.11120809      3.48854743     -0.09002201
H      -1.22871335      2.40027101     -1.47930893
H      -2.23597331      2.13470660     -0.03871729
H       0.80274985      2.10929323     -0.03183491
H      -0.21345563      1.59252690      1.30855835
H      -2.16306127      0.00969068     -0.01856925
H      -2.44403868     -2.21496505     -0.80776469
H      -1.50351717     -1.31450989     -2.00006488
H      -0.70801309     -2.49535230     -0.94116050
H      -2.17909762     -1.69847986      1.68222772
H      -1.10697584     -0.40639460      2.21836647
H      -0.43355645     -1.92687843      1.59110343
H       1.10130831     -1.53073476     -0.25558847
H       1.39165958     -0.40916940      2.00217387
H       2.89068515     -0.79722349      1.16103276
H       2.31922929      0.86886423      1.19819597
H       2.33258135      1.01734671     -1.39038296
H       1.58596271     -0.28939423     -2.32852430
H       3.03802667     -0.60397098     -1.37332333
