14
CC(C)OC=O
C      -1.05638905     -0.93583797      0.03091097
C      -0.09567994      0.22078539     -0.22144253
C      -0.67028914      1.52590329      0.31601877
O       1.14146068     -0.01832607      0.47543719
C       2.04522166     -0.79552920     -0.17074020
O       1.91774606     -1.30849884     -1.27025412
H      -2.02427077     -0.75834941     -0.44790873
H      -0.64775121     -1.87444392     -0.35728682
H      -1.21703164     -1.08423800      1.10450002
H       0.08630779      0.33847921     -1.29674675
H      -0.83543321      1.46783891      1.39765521
H      -1.61795134      1.77435917     -0.17141641
H       0.03371510      2.34849087      0.14952305
H       2.94034502     -0.90063342      0.46175035
