17
COC(OC)OC
C      -1.45203233     -1.69979386     -0.74941901
O      -0.25285011     -1.43787915     -0.03822360
C      -0.00061747     -0.03991084      0.08749199
O      -1.02564649      0.56750433      0.87113918
C      -0.88292659      1.97759089      0.93215364
O       1.26763716      0.16863900      0.70537415
C       2.33432272     -0.31885773     -0.09272665
H      -2.32301047     -1.33076603     -0.19983455
H      -1.55313514     -2.78288031     -0.86141148
H      -1.41715954     -1.25178413     -1.74731138
H       0.00644091      0.41618162     -0.91231283
H       0.03745877      2.25685298      1.45343288
H      -0.89550364      2.41273920     -0.07194049
H      -1.72934438      2.38260285      1.49374322
H       2.33310603      0.16013380     -1.07674041
H       2.27812653     -1.40596714     -0.20164494
H       3.27513403     -0.07440547      0.40823027
