62
CCCCCCCCCCC(C)CCCCCCCC
C       8.76599752     -2.82390062     -0.56200713
C       8.30417659     -1.44042720     -0.99156189
C       6.87439198     -1.15758498     -0.52790753
C       6.41534931      0.23425507     -0.96826521
C       5.03516695      0.62298748     -0.42783652
C       3.89630248     -0.21972195     -1.00828196
C       2.51591119      0.17394860     -0.46975576
C       2.06959057      1.57182880     -0.90699924
C       0.60608264      1.87262076     -0.56332520
C       0.33765698      1.91969928      0.94427500
C      -1.07195058      2.43393879      1.30118211
C      -1.21993779      2.51880402      2.82416532
C      -2.23040089      1.63201535      0.66953179
C      -2.26850931      0.14432608      1.03709823
C      -3.37376120     -0.62944445      0.30896533
C      -4.78625259     -0.20722340      0.71964584
C      -5.84426565     -1.09460153      0.05752420
C      -7.25698891     -0.66839783      0.46331681
C      -8.34920801     -1.58867459     -0.08575487
C      -8.46431750     -1.55737953     -1.60190787
H       8.12454582     -3.60176798     -0.98860202
H       9.79045978     -3.00411024     -0.90246687
H       8.74783800     -2.92268321      0.52810629
H       8.98625944     -0.68941830     -0.57619701
H       8.36327808     -1.36437238     -2.08356939
H       6.82130163     -1.23424316      0.56475015
H       6.20752059     -1.92247510     -0.94066013
H       6.41226926      0.29502955     -2.06337378
H       7.14058993      0.97722284     -0.61332623
H       5.03366538      0.54642613      0.66612200
H       4.87054646      1.67844752     -0.67200945
H       4.05809459     -1.27496171     -0.76161759
H       3.89935962     -0.14563973     -2.10239351
H       2.52460980      0.10399116      0.62389477
H       1.78717888     -0.56275277     -0.82991570
H       2.19155330      1.66506981     -1.99312454
H       2.70844853      2.33487817     -0.44850721
H      -0.03304771      1.12068948     -1.03963220
H       0.34306129      2.84142010     -1.00535074
H       0.49412580      0.92864845      1.38459230
H       1.07755253      2.58284634      1.41151016
H      -1.15494958      3.46004957      0.91711712
H      -1.06848698      1.54541983      3.30155839
H      -0.48272002      3.21204361      3.24386268
H      -2.21403076      2.88539692      3.10091701
H      -2.18532862      1.73270217     -0.42153983
H      -3.17210790      2.10503126      0.97332983
H      -1.31311822     -0.32423312      0.77690486
H      -2.39881749      0.02405732      2.11829997
H      -3.24245016     -1.69654289      0.52798784
H      -3.25166167     -0.51308887     -0.77482903
H      -4.88576289     -0.26862260      1.81002322
H      -4.96570986      0.83513113      0.43390852
H      -5.73151982     -1.03447689     -1.03075847
H      -5.67923964     -2.13987565      0.34533741
H      -7.44275699      0.36069654      0.13238104
H      -7.33005746     -0.66604081      1.55796175
H      -8.17128926     -2.61839191      0.24545887
H      -9.31039367     -1.27999378      0.34240515
H      -9.32132074     -2.15696260     -1.92549301
H      -8.61041512     -0.53488967     -1.96423370
H      -7.57210792     -1.97093977     -2.08093033
