26
Nc1ccc(Cl)cc1C(=O)c1ccccc1Cl
N       2.13958492     -1.73456147     -1.84589165
C       2.23345569     -0.84386541     -0.76026066
C       3.44752053     -0.17827584     -0.54583014
C       3.56151160      0.80769254      0.43687965
C       2.44881740      1.15948949      1.19439192
Cl      2.59144567      2.36712087      2.41159850
C       1.21734194      0.55025247      0.96901507
C       1.09902843     -0.42853977     -0.02987023
C      -0.22061557     -1.07627735     -0.27487348
O      -0.27582422     -2.26071775     -0.60228795
C      -1.48935357     -0.34357691     -0.07249999
C      -2.43579732     -0.94115256      0.77369269
C      -3.65235869     -0.30658598      1.02539365
C      -3.93401012      0.91891335      0.42486553
C      -3.00502256      1.50519970     -0.43768587
C      -1.78308704      0.87463393     -0.69632186
Cl     -0.72071457      1.63526991     -1.82453882
H       1.32887779     -2.35822703     -1.74814051
H       2.98976141     -2.25418131     -2.03534368
H       4.31707217     -0.42291401     -1.15155206
H       4.51714602      1.30031876      0.59621372
H       0.36328962      0.84161120      1.57322243
H      -2.22449173     -1.90398230      1.23599848
H      -4.38228755     -0.77188075      1.68420007
H      -4.88429654      1.41264996      0.61622531
H      -3.24699370      2.45158624     -0.91660013
