22
Clc1cc(Cl)c(Cl)c(-c2ccccc2)c1Cl
Cl      3.88778278     -2.25189634      1.14757453
C       2.89502240     -0.98882007      0.50472941
C       3.54998141      0.10809352     -0.05247692
C       2.81333797      1.16262838     -0.58911790
Cl      3.70800488      2.48318578     -1.25985152
C       1.40916925      1.12824460     -0.57262475
Cl      0.50779575      2.45668191     -1.24863312
C       0.72388666      0.02203127     -0.01070912
C      -0.75112761     -0.02287973      0.01110227
C      -1.46696090     -0.59188397     -1.05456877
C      -2.86257134     -0.63390434     -1.03302498
C      -3.55978196     -0.10837616      0.05262922
C      -2.86405749      0.45955041      1.11769033
C      -1.46844831      0.50249466      1.09796561
C       1.49148875     -1.03993982      0.52972975
Cl      0.69295414     -2.42014773      1.23085398
H       4.63763990      0.14121653     -0.06855015
H      -0.94095041     -1.00754232     -1.91135401
H      -3.40536585     -1.07702743     -1.86403618
H      -4.64617976     -0.14144442      0.06868995
H      -3.40801038      0.86959381      1.96476907
H      -0.94360987      0.95014146      1.93921332
