28
O=C1CC(c2ccccc2)CC(=O)C1[N+](=O)[O-]
O       2.25494268      2.96543010     -0.34371564
C       1.94603526      1.77529178     -0.43073699
C       0.62818551      1.28640694      0.12965643
C      -0.00206482      0.27171220     -0.82738506
C      -1.36736733     -0.17424544     -0.34186008
C      -2.50284888      0.08470462     -1.12454478
C      -3.76979014     -0.31702792     -0.69678949
C      -3.91890808     -0.98212054      0.51737264
C      -2.80153270     -1.24625344      1.30511956
C      -1.53337879     -0.84562844      0.87976562
C       0.93252684     -0.92123250     -1.04225934
C       2.25243818     -0.44730171     -1.61059077
O       2.81437075     -1.09256603     -2.49788516
C       2.88941858      0.76954827     -1.01429686
N       3.76615992      0.30482276      0.08883385
O       3.22781952     -0.27585145      1.04289490
O       4.97814857      0.52734269     -0.01559590
H      -0.03634527      2.15064613      0.25071613
H       0.80744973      0.86734313      1.12533818
H      -0.12339372      0.77129972     -1.80000989
H      -2.41596720      0.60257590     -2.07753746
H      -4.64189699     -0.11052973     -1.31226963
H      -4.90554331     -1.29452680      0.84965102
H      -2.91754137     -1.76559235      2.25331213
H      -0.68073931     -1.06705268      1.51830745
H       0.48421816     -1.62543227     -1.75379867
H       1.12975974     -1.47064151     -0.11577060
H       3.50584447      1.25887858     -1.77600792
