22
Clc1ccc(-c2cccc(Cl)c2Cl)c(Cl)c1
Cl     -5.24306734      0.26368108      0.23697215
C      -3.52693486      0.16932212      0.16429239
C      -2.84959415      0.74048574     -0.90958610
C      -1.45598048      0.66349330     -0.97130873
C      -0.72239086      0.01649046      0.04028073
C       0.74684482     -0.03999748     -0.06172346
C       1.33457389     -1.11815052     -0.75132231
C       2.71939132     -1.22512918     -0.87559331
C       3.54255588     -0.25344443     -0.31332003
C       2.98435239      0.82827604      0.37398774
Cl      4.08018237      1.99233780      1.03643675
C       1.59041563      0.94251279      0.50324583
Cl      0.89361038      2.29268397      1.34998328
C      -1.43251642     -0.55557143      1.11475068
Cl     -0.61828161     -1.38213809      2.39940832
C      -2.82690229     -0.47919603      1.17713172
H      -3.39706355      1.24923615     -1.69933679
H      -0.93935453      1.12029597     -1.81432189
H       0.70541746     -1.89081058     -1.19226938
H       3.15527638     -2.06787171     -1.40757170
H       4.62200291     -0.34390731     -0.41239861
H      -3.36253736     -0.92259866      2.01226273
