30
COCCOCCOCCOC
C      -5.79107182     -0.31540527     -0.05373379
O      -4.81807007      0.10105389     -1.00215388
C      -3.52082162     -0.43475465     -0.73823731
C      -2.75708506      0.39592773      0.29121681
O      -1.47120059     -0.18453424      0.50473419
C      -0.69114861      0.58312547      1.42831842
C       0.69862914     -0.03877991      1.55911989
O       1.47242123      0.27604010      0.39596407
C       2.75793132     -0.34198840      0.43505751
C       3.51471743     -0.01366619     -0.85047160
O       4.81136453     -0.61171906     -0.87572612
C       5.78883152      0.15971651     -0.19079737
H      -6.75394491      0.11652581     -0.33997864
H      -5.88664121     -1.40546742     -0.05553607
H      -5.53911549      0.03945832      0.94911420
H      -3.58296202     -1.48717033     -0.43495335
H      -2.96457396     -0.42469565     -1.68260536
H      -3.30303773      0.43073761      1.24007179
H      -2.65328797      1.42529158     -0.07220111
H      -1.19213244      0.56940369      2.40229975
H      -0.61154282      1.61473633      1.06735064
H       1.20514926      0.37680924      2.43692310
H       0.61826086     -1.12711929      1.65867803
H       2.65360204     -1.42927910      0.53174487
H       3.30920423      0.01921425      1.30983194
H       3.57683353      1.06970613     -1.01131495
H       2.95333487     -0.41401713     -1.70247785
H       6.75086075     -0.35270147     -0.27772450
H       5.88252999      1.15091799     -0.64480640
H       5.54296560      0.25263344      0.87035010
