45
CC(C)(C1CCC(O)CC1)C1CCC(O)CC1
C       0.13866942     -1.83763075      1.47612178
C      -0.03373246     -1.12953665      0.10821091
C      -0.17116215     -2.24228859     -0.96051417
C      -1.35369093     -0.24513991      0.15194170
C      -2.65936858     -1.02498702      0.40906577
C      -3.84118324     -0.08914135      0.70723109
C      -3.79705919      1.22586015     -0.07600302
O      -3.20909584      2.25011407      0.72553187
C      -2.98612437      1.09025970     -1.35711277
C      -1.53790236      0.65466947     -1.09725250
C       1.24156830     -0.23381420     -0.21461657
C       1.48730021      0.88383308      0.82707125
C       2.66472271      1.77868445      0.44610682
C       3.94129329      0.97222218      0.24030679
O       4.98222002      1.82752078     -0.21886072
C       3.72784192     -0.13125232     -0.78756550
C       2.55251728     -1.03451309     -0.41615611
H       1.09042748     -2.37230399      1.54391367
H       0.09270807     -1.12669117      2.30722935
H      -0.63993141     -2.58869070      1.64474956
H       0.65131988     -2.96299143     -0.89918555
H      -0.17789997     -1.83268152     -1.97502120
H      -1.08620132     -2.82736535     -0.82770553
H      -1.24636447      0.42631089      1.01478467
H      -2.56274427     -1.71949050      1.24834991
H      -2.91102197     -1.62961453     -0.47081859
H      -3.87264968      0.11514499      1.78443871
H      -4.76341144     -0.62947637      0.46056890
H      -4.81604082      1.55181002     -0.31230482
H      -3.77244202      2.36722777      1.50946634
H      -2.97024985      2.04355458     -1.89902589
H      -3.47119141      0.35850813     -2.01530807
H      -0.92186906      1.55427202     -0.97541771
H      -1.17509727      0.15948265     -2.00391915
H       1.05358542      0.26060782     -1.17735204
H       1.68680937      0.44536134      1.81170177
H       0.60587050      1.52239861      0.93371536
H       2.42735202      2.34092975     -0.46645747
H       2.82586721      2.53413879      1.22478210
H       4.26497568      0.53191370      1.19088948
H       5.09001606      2.53591394      0.43852201
H       3.55947343      0.31029272     -1.77865520
H       4.64274349     -0.72872464     -0.88338382
H       2.43737172     -1.76986871     -1.21841386
H       2.81178059     -1.58482881      0.49454653
