26
COC(=O)c1ccc(N(C)C)cc1
C       5.01202387     -0.01928110     -0.44922835
O       3.60775831      0.23326204     -0.38830862
C       2.87251124     -0.83870399      0.00097827
O       3.31424969     -1.94056765      0.28735631
C       1.42496508     -0.49778452      0.03857124
C       0.51753723     -1.48803055      0.41348033
C      -0.85735569     -1.21111629      0.46240638
C      -1.38152741      0.05710257      0.15315216
N      -2.75486269      0.32397151      0.18679656
C      -3.20805900      1.71419793      0.18054287
C      -3.64974084     -0.62765292      0.84378351
C      -0.44134493      1.02905764     -0.23642166
C       0.93703837      0.76634390     -0.29037835
H       5.50776185      0.90058256     -0.77148486
H       5.22934167     -0.80416363     -1.18050161
H       5.39599008     -0.29163698      0.53890645
H       0.86748831     -2.48682591      0.66747592
H      -1.50806524     -2.03098786      0.75161503
H      -2.80545465      2.26351351      1.03878206
H      -2.92254388      2.21990665     -0.74802070
H      -4.30091483      1.77736938      0.23192289
H      -3.62047858     -1.60519227      0.35060881
H      -4.69275672     -0.29599818      0.78814319
H      -3.39483415     -0.74070896      1.90329400
H      -0.75723753      2.02919166     -0.51818300
H       1.60851044      1.56415144     -0.59701711
