18
Nc1ccc(C(=O)O)c(O)c1
N       3.16466839     -0.41358663      0.37953557
C       1.80300226     -0.20782270      0.13263435
C       1.09695990     -1.09244085     -0.68722937
C      -0.28806103     -0.97159455     -0.84797933
C      -0.99243450      0.01837060     -0.15281126
C      -2.45624805      0.16826914     -0.30173095
O      -3.12601736      0.99823227      0.29062476
O      -3.00707936     -0.70106799     -1.16471081
C      -0.29369309      0.86824193      0.71347572
O      -0.89558858      1.85142122      1.45590893
C       1.08800854      0.74009764      0.86915069
H       3.64886548      0.40932195      0.72637458
H       3.66326141     -0.86189333     -0.38250873
H       1.62126835     -1.88845421     -1.21044539
H      -0.80463559     -1.66459732     -1.50744226
H      -3.96325493     -0.48521254     -1.15783100
H      -1.86020525      1.84123103      1.27350813
H       1.60118341      1.39148435      1.57147636
