68
CCCCCCCCCCCCCCCCCCCCCC(=O)[O-].[Ag+]
C      11.41694817      0.49087526      0.00008504
C       9.98353824      0.73220963      0.42813314
C       9.08877940      0.61555461     -0.76424753
C       7.62233254      0.85157441     -0.41257601
C       7.12411168     -0.13533704      0.59510565
C       5.68041417      0.13095669      0.92439426
C       4.83472961      0.01715315     -0.29446054
C       3.37249453      0.28330877      0.09361688
C       2.57351961      0.15248365     -1.18349112
C       1.10232095      0.38884109     -0.96256833
C       0.50638328     -0.59205900      0.02061387
C      -0.97789636     -0.20604265      0.12096020
C      -1.70888462     -1.10138274      1.07138397
C      -3.15349481     -0.67074703      1.13068602
C      -3.83126340     -0.74975053     -0.19970362
C      -5.29903382     -0.31266249     -0.14416068
C      -6.10216303     -1.16523678      0.77933602
C      -7.52969635     -0.67689884      0.80650529
C      -8.13324599     -0.74813150     -0.55059999
C      -9.59213513     -0.28724585     -0.52272572
C      -9.68518151      1.12734243     -0.04828094
C     -11.13000839      1.51123854     -0.05841456
O     -12.03034500      0.71243821     -0.41957469
O     -11.52413131      2.78218174      0.33749211
Ag      0.00000000      0.00000000      0.00000000
H      11.70112351      1.10327273     -0.86297469
H      12.10978286      0.74218231      0.82761381
H      11.58619049     -0.58023554     -0.24723733
H       9.94927812      1.74304313      0.86605989
H       9.76117461     -0.06005303      1.19056174
H       9.35691983      1.47577446     -1.44605312
H       9.23856597     -0.28777624     -1.35289946
H       7.08530885      0.74352785     -1.39940368
H       7.55165757      1.89875954     -0.05633556
H       7.76277549     -0.06914135      1.50025279
H       7.25877240     -1.15571606      0.19103876
H       5.28364501     -0.55830386      1.69546233
H       5.56147114      1.16216036      1.32403183
H       5.12317241      0.82431025     -1.02886857
H       4.85050117     -0.97827404     -0.76950268
H       3.34418385      1.33816132      0.43055908
H       3.04205219     -0.37989272      0.89100738
H       2.92954311      0.96365974     -1.85937555
H       2.78002928     -0.79918257     -1.69290704
H       0.58772173      0.23741924     -1.92332179
H       0.95392006      1.41582175     -0.62676383
H       0.99860745     -0.57907085      0.99989314
H       0.54671756     -1.61769692     -0.36560166
H      -0.98474141      0.83352012      0.50857225
H      -1.36446617     -0.29089914     -0.91397439
H      -1.70287284     -2.14090879      0.62953211
H      -1.24212551     -1.18573460      2.05044477
H      -3.70002981     -1.15647817      1.93864072
H      -3.12844571      0.42273605      1.40339849
H      -3.83924772     -1.77206115     -0.63022923
H      -3.36984908     -0.01748585     -0.92574029
H      -5.40617360      0.75799235      0.01997038
H      -5.66463630     -0.53236507     -1.19413470
H      -6.06690027     -2.23496225      0.40731698
H      -5.69676736     -1.23827580      1.81209849
H      -8.08640579     -1.26776167      1.56125692
H      -7.47337929      0.36930358      1.20184295
H      -8.12418940     -1.76520465     -0.96833011
H      -7.58066202     -0.08641647     -1.25509994
H     -10.06150178     -0.43138691     -1.51560796
H     -10.11414445     -0.98751617      0.16641766
H      -9.08893910      1.78254540     -0.68925877
H      -9.27572952      1.20794592      0.99158994
