31
COc1cc(/C=C/C(=O)O)cc(OC)c1OC
C      -2.34171631     -2.01496707     -1.98193386
O      -2.51095371     -0.81150427     -1.24620011
C      -1.41830352     -0.31831275     -0.58038155
C      -0.11440072     -0.80160277     -0.71818495
C       0.94080423     -0.23261550      0.01187647
C       2.32657364     -0.70141307     -0.13285953
C       2.66892183     -1.99439314     -0.23444952
C       4.08458011     -2.36265968     -0.35844926
O       5.04556308     -1.61859582     -0.36932422
O       4.20566316     -3.69475526     -0.46770112
C       0.68544846      0.84832488      0.86966871
C      -0.61039017      1.34738222      1.02340128
O      -0.95637488      2.39026635      1.84360142
C       0.03665431      2.88031569      2.73378064
C      -1.65177031      0.76760719      0.27993659
O      -2.94051685      1.22430303      0.45388921
C      -3.21359283      2.26617889     -0.48137156
H      -3.32266590     -2.31455791     -2.36326172
H      -1.97161786     -2.82409980     -1.34344085
H      -1.68456311     -1.85798381     -2.84334284
H       0.10297219     -1.61337475     -1.40409377
H       3.09472974      0.07096703     -0.12924026
H       1.94909666     -2.80277899     -0.21552538
H       5.17240030     -3.83715535     -0.54209614
H       1.51697960      1.28366251      1.41527589
H       0.41318737      2.08606421      3.38698830
H      -0.42918715      3.64005384      3.36878155
H       0.85217494      3.36156300      2.18434136
H      -3.13705915      1.90756584     -1.51367098
H      -2.55065245      3.12485580     -0.32900345
H      -4.24198469      2.60165946     -0.31701037
