50
O=C1CCCCCN1C(=O)c1cccc(C(=O)N2CCCCCC2=O)c1
O       2.31765091     -0.42232606      1.54774240
C       3.05099502      0.27396561      0.84512897
C       4.50737682      0.43835707      1.24189899
C       5.47972906      0.08358771      0.12374797
C       5.76555519      1.25553225     -0.80897725
C       4.56114159      1.70782219     -1.62771257
C       3.35506807      2.11009212     -0.78126997
N       2.61925674      0.94342656     -0.29529813
C       1.29277503      0.82505780     -0.72806650
O       0.61124455      1.78966451     -1.07825894
C       0.67047354     -0.52909308     -0.80461033
C       1.42136250     -1.66804720     -1.12878677
C       0.79126316     -2.90671272     -1.26939940
C      -0.59025931     -3.01038690     -1.10233993
C      -1.34532032     -1.87680386     -0.78022471
C      -2.82572553     -2.00076195     -0.68291095
O      -3.39403999     -2.74327585     -1.48331113
N      -3.49827377     -1.24990221      0.28782836
C      -4.90170697     -0.94134701      0.02475811
C      -5.11275181      0.55131625     -0.21841698
C      -5.11759849      1.38617466      1.05861621
C      -3.85316788      1.24902404      1.90143142
C      -3.68406669     -0.14205419      2.50215251
C      -2.98550902     -1.11894272      1.57340377
O      -2.03532471     -1.77801630      1.99707490
C      -0.71822913     -0.63180785     -0.65080661
H       4.67496195      1.44332065      1.64261852
H       4.68344763     -0.25782192      2.07253270
H       5.11449444     -0.77503674     -0.45249015
H       6.43115573     -0.21990519      0.57779986
H       6.56655369      0.96740821     -1.50071737
H       6.15038214      2.10213187     -0.22673302
H       4.27746201      0.91923127     -2.33569681
H       4.87151058      2.57317372     -2.22626940
H       3.65614755      2.73480415      0.06729234
H       2.70579008      2.72894146     -1.41043690
H       2.49404110     -1.60448474     -1.28546985
H       1.37399812     -3.79064222     -1.51655336
H      -1.08031662     -3.97411577     -1.22493273
H      -5.24440194     -1.47661874     -0.86740197
H      -5.51827522     -1.29565638      0.85866517
H      -4.34779821      0.93248030     -0.90626591
H      -6.08162578      0.69178418     -0.71321983
H      -5.24296406      2.44020318      0.78213124
H      -5.99241204      1.12034453      1.66512502
H      -3.92262557      1.97185362      2.72377510
H      -2.97386175      1.52716599      1.30814105
H      -3.04444097     -0.04704943      3.38942110
H      -4.63188646     -0.56828081      2.84647869
H      -1.30125497      0.26222596     -0.44710253
