44
CC1(N)CN(c2c(F)c(N)c3c(=O)c(C(=O)O)cn(C4CC4)c3c2F)C1
C       5.38184686     -1.44975625     -0.62274934
C       4.33401049     -0.90038945      0.31354843
N       4.75709151     -0.95746353      1.73126529
C       3.71714739      0.48645314      0.00818811
N       2.44325908     -0.06167575      0.40652312
C       1.16042921      0.47869177      0.14030326
C       0.97924118      1.84903396     -0.08872904
F       2.04538902      2.67058961     -0.08046051
C      -0.28163338      2.42352926     -0.32770923
N      -0.33886700      3.77546891     -0.72855520
C      -1.40214511      1.56995550     -0.37989618
C      -2.75818740      2.12701258     -0.66442301
O      -2.97506964      3.33845432     -0.71636834
C      -3.87850191      1.19049762     -0.88418564
C      -5.22652642      1.60313750     -1.32651914
O      -6.13283392      0.81230397     -1.54486273
O      -5.38599368      2.93589466     -1.47284785
C      -3.64457050     -0.10252956     -0.62725645
N      -2.45269254     -0.63656381     -0.17712304
C      -2.41063475     -2.08540622      0.10602900
C      -3.50165303     -2.79998071      0.87044042
C      -2.16251893     -2.60147120      1.50347841
C      -1.28020711      0.18122362     -0.14004098
C       0.01074560     -0.33037478      0.11270877
F       0.16917441     -1.65010335      0.30774006
C       2.88138331     -1.42113497      0.19040995
H       5.04647578     -1.40247519     -1.66455085
H       5.60585239     -2.49804200     -0.39690130
H       6.31530727     -0.88075473     -0.55208620
H       4.02138844     -0.63658720      2.36506405
H       5.56621776     -0.37385540      1.93895928
H       4.04735165      1.32268582      0.63087151
H       3.73003577      0.77630621     -1.04888517
H       0.41603157      4.34903813     -0.35825753
H      -1.26472972      4.19906580     -0.62140352
H      -4.58312760      3.46459513     -1.24529804
H      -4.43705874     -0.83819379     -0.75703531
H      -1.96037019     -2.64323130     -0.71313304
H      -3.76919174     -3.80001215      0.54896602
H      -4.32972657     -2.23117294      1.27626437
H      -2.08338535     -1.88265924      2.31032171
H      -1.51100161     -3.46090008      1.61048424
H       2.53768115     -2.11872014      0.95941072
H       2.60456705     -1.79048377     -0.80386214
