21
CC(=O)OCn1cc(F)c(=O)[nH]c1=O
C      -3.72241716      0.34632536      0.54618784
C      -2.74679444     -0.09665926     -0.50023066
O      -3.05589267     -0.47825859     -1.61954070
O      -1.47713740     -0.00025771     -0.02765412
C      -0.50082199     -0.45283198     -0.96498568
N       0.81544400     -0.22218213     -0.38294783
C       1.29475686      1.07188923     -0.28529624
C       2.47752702      1.33872641      0.26696843
F       2.95895988      2.59037782      0.37274482
C       3.30464860      0.23687234      0.79423654
O       4.39917952      0.41888782      1.31405253
N       2.75312142     -1.01123671      0.66015866
C       1.53158477     -1.30844710      0.10450221
O       1.14297002     -2.47233983      0.06127821
H      -3.62044066     -0.27897640      1.43673422
H      -3.55056585      1.39726414      0.79159349
H      -4.74050269      0.23859637      0.16120351
H      -0.65266913     -1.51705268     -1.17616033
H      -0.56692334      0.11691132     -1.90064889
H       0.66918983      1.87070570     -0.67061906
H       3.28678343     -1.78831413      1.01842305
