26
O=C(c1ccco1)c1no[n+]([O-])c1C(=O)c1ccco1
O       0.78559455     -0.10557560      1.70451430
C       1.42684612     -0.02067390      0.65844768
C       2.86430077     -0.19736960      0.60147414
C       3.79109118     -0.29121336      1.62650359
C       5.05579369     -0.49074011      1.02331889
C       4.82973961     -0.52214604     -0.33124323
O       3.50939104     -0.35738325     -0.59644392
C       0.73341911      0.27160885     -0.59984355
N       1.25169110      1.04300441     -1.56776552
O       0.28702273      1.12535653     -2.56591848
N      -0.86543148      0.39995321     -2.12039273
O      -1.79976826      0.28238308     -2.94354529
C      -0.58906392     -0.10933799     -0.92710629
C      -1.49391782     -0.95903634     -0.22275408
O      -1.13813330     -2.07693404      0.13542538
C      -2.80130563     -0.40156558      0.04846665
C      -3.93227770     -0.97970940      0.59579675
C      -4.92364380      0.02911756      0.64836243
C      -4.33980272      1.16509385      0.14153588
O      -3.05326994      0.92003127     -0.21547620
H       3.56780579     -0.22196184      2.68320520
H       6.01259170     -0.60313151      1.51414281
H       5.46752215     -0.65052251     -1.19533240
H      -4.02094418     -2.01029139      0.91422116
H      -5.93807162     -0.05955902      1.01211402
H      -4.68717917      2.17644691     -0.02170720
