22
Clc1ccc(Cl)c(-c2ccccc2Cl)c1
Cl      3.96015546     -1.96313904     -1.06660484
C       2.94659438     -0.76104397     -0.36898313
C       3.51583542      0.31631356      0.30390606
C       2.69182953      1.29129397      0.86686416
C       1.30066436      1.18587114      0.75614605
Cl      0.34447987      2.43785703      1.47146187
C       0.71214039      0.09930764      0.07997303
C      -0.74518451     -0.05615527     -0.05879486
C      -1.38672466      0.46857587     -1.19596671
C      -2.76737203      0.34172861     -1.36689938
C      -3.53174292     -0.31337043     -0.40520008
C      -2.91646674     -0.84303030      0.72821202
C      -1.53408707     -0.71710769      0.90165162
Cl     -0.83872503     -1.40788666      2.32834021
C       1.56051203     -0.87259830     -0.48340617
H       4.59553414      0.40300527      0.39466908
H       3.13873323      2.13188632      1.39248879
H      -0.80776466      0.98881635     -1.95742112
H      -3.24511821      0.75807353     -2.25073910
H      -4.60665932     -0.41067410     -0.53643496
H      -3.51911969     -1.35319703      1.47552279
H       1.13248602     -1.72452648     -1.00878533
