19
O=C(O)/C=C/c1ccccc1
O       3.84477345      1.09178249     -0.27075304
C       3.38094094     -0.02457548     -0.14384938
O       4.15572484     -1.11852559     -0.07233193
C       1.96581605     -0.40244638     -0.04858028
C       1.01952482      0.54619198     -0.11083480
C      -0.42167983      0.27836361     -0.01159860
C      -1.24349553      1.23125313      0.60504049
C      -2.62288360      1.02941463      0.69881783
C      -3.19688062     -0.12259044      0.16640384
C      -2.39339703     -1.06997276     -0.46413208
C      -1.01346117     -0.86862066     -0.55750289
H       5.06617507     -0.76354616     -0.14361599
H       1.74465137     -1.45350558      0.08473095
H       1.30153691      1.59262067     -0.21923319
H      -0.81565388      2.13848324      1.02649748
H      -3.24779708      1.77332862      1.18614516
H      -4.27006539     -0.27914571      0.23757465
H      -2.84069488     -1.96453549     -0.88982146
H      -0.41313445     -1.61397413     -1.07295676
