63
CCCCC(CC)COC(=O)CSCC(=O)OCC(CC)CCCC
C       7.74173153     -1.61359283     -1.27870678
C       6.81524296     -0.40906341     -1.29389971
C       5.84873867     -0.35306203     -0.10843668
C       4.86212250     -1.52534823     -0.07983987
C       3.74920607     -1.42111998      0.99352061
C       4.33812662     -1.50772558      2.41492074
C       3.28498978     -1.69799758      3.49823736
C       2.86542437     -0.17400571      0.81668353
O       2.40748417     -0.10301596     -0.54156293
C       1.82607641      1.08592395     -0.88641487
O       1.66416913      2.02130936     -0.11517256
C       1.40414712      1.02544025     -2.33902626
S       0.72998765      2.58445736     -3.01737046
C      -0.57489702      3.01482890     -1.81125366
C      -1.49373584      1.87628320     -1.42603635
O      -1.62693142      0.81662812     -2.02334506
O      -2.19231069      2.22485269     -0.30482742
C      -3.11624648      1.24192901      0.19101216
C      -4.48911822      1.38158329     -0.49099906
C      -5.04635552      2.82176774     -0.40504993
C      -5.26505358      3.35015717      1.00636720
C      -5.50359449      0.35618482      0.05618533
C      -5.18693203     -1.08496760     -0.36008768
C      -6.24734793     -2.05703733      0.15948123
C      -5.96203091     -3.48230010     -0.28585800
H       7.18720550     -2.54755908     -1.40923953
H       8.29962101     -1.66871526     -0.33906230
H       8.46446639     -1.54160380     -2.09784133
H       6.24868132     -0.39940889     -2.23210886
H       7.42578816      0.50239560     -1.28633758
H       6.41863240     -0.31513170      0.82677349
H       5.30080952      0.59303369     -0.18341345
H       5.41341455     -2.45676922      0.09228376
H       4.39586354     -1.62913242     -1.06663747
H       3.10642309     -2.29979908      0.83591731
H       5.03382351     -2.35345980      2.46633480
H       4.91749507     -0.60505269      2.64263171
H       2.67125363     -2.58197736      3.30062067
H       3.76988566     -1.83327455      4.47008686
H       2.62667633     -0.82868246      3.57841256
H       1.98321279     -0.24189607      1.46222427
H       3.42393551      0.73196719      1.08161313
H       0.68632893      0.21408658     -2.47847557
H       2.29403345      0.79376035     -2.93574865
H      -0.11496990      3.44775258     -0.92065055
H      -1.19382162      3.79035476     -2.27344471
H      -3.20153481      1.40167128      1.27142714
H      -2.69781082      0.23716649      0.06623689
H      -4.35466548      1.18366991     -1.56354049
H      -4.37075244      3.50585992     -0.93374702
H      -5.99988418      2.86539592     -0.94602893
H      -5.70207559      4.35307064      0.96387865
H      -4.32376773      3.42633925      1.55658122
H      -5.94929020      2.71478769      1.57516811
H      -5.54723152      0.41612158      1.15083777
H      -6.50433784      0.61041834     -0.31641021
H      -4.20809012     -1.38758716      0.02664105
H      -5.13694865     -1.14655282     -1.45357553
H      -6.27723660     -2.02131633      1.25424343
H      -7.23836143     -1.76052599     -0.20231103
H      -6.72144482     -4.16279960      0.11111254
H      -5.97449852     -3.56099740     -1.37728868
H      -4.98372096     -3.81771960      0.07224404
