72
C[C@H]1[C@H]2[C@H](C[C@H]3[C@@H]4CC=C5C[C@@H](O)CC[C@]5(C)[C@H]4CC[C@@]32C)O[C@]12CC[C@@H](C)CO2
C      -3.39515323      2.41708583     -0.74372581
C      -2.93347168      0.96645755     -0.71580758
C      -1.75408144      0.74686435      0.23929046
C      -2.05818285     -0.62344282      0.88360448
C      -0.78487131     -1.46724332      0.80407094
C       0.28679862     -0.38813542      0.69722146
C       1.72830758     -0.79737656      0.38399768
C       2.26593187     -1.75826368      1.45585361
C       3.75471702     -1.90892036      1.43020083
C       4.59484771     -1.10539673      0.75257512
C       6.08481677     -1.36963496      0.77663282
C       6.88727874     -0.11662639      1.13219281
O       8.28332377     -0.37418089      0.99555921
C       6.51946868      1.04566191      0.21684841
C       5.01950304      1.33459188      0.26325566
C       4.11668024      0.10673179     -0.06299130
C       4.25292897     -0.24210473     -1.56532116
C       2.62458176      0.47442638      0.30938781
C       2.01008017      1.59991716     -0.56867181
C       0.52523787      1.88087515     -0.27517733
C      -0.31398682      0.59557066     -0.33447715
C      -0.30381671      0.03893821     -1.78057650
O      -3.15886791     -1.18262881      0.17273151
C      -3.97502172     -0.05737986     -0.21921940
C      -4.95260206     -0.51971068     -1.31678768
C      -6.31821895      0.13934591     -1.17423322
C      -6.90687206     -0.10197718      0.22390580
C      -7.88089892     -1.27931273      0.24060604
C      -5.80361766     -0.30684520      1.26863610
O      -4.65954461      0.46829350      0.92588152
H      -3.70307933      2.77059230      0.24534235
H      -4.23885833      2.54349633     -1.42847478
H      -2.58518172      3.06766784     -1.09030587
H      -2.65551497      0.69398876     -1.73561664
H      -1.74954205      1.50207678      1.03731038
H      -2.35353183     -0.49177646      1.93272009
H      -0.66363350     -2.07950072      1.70336729
H      -0.79171221     -2.14652911     -0.05449869
H       0.31415687      0.11796203      1.67805440
H       1.75645778     -1.32684993     -0.57460659
H       1.97981104     -1.41773609      2.45871405
H       1.80936775     -2.74517394      1.31330564
H       4.14989958     -2.74242201      2.00869485
H       6.34024853     -2.16346555      1.49114049
H       6.40751537     -1.75469862     -0.19898111
H       6.70157132      0.16695811      2.17520974
H       8.50946363     -1.08637448      1.61855081
H       6.84183067      0.83527019     -0.81023491
H       7.07773602      1.94009835      0.51850940
H       4.77992694      1.70948515      1.26810602
H       4.80881389      2.15741753     -0.43127812
H       3.54809686     -1.02272465     -1.86933677
H       5.25448104     -0.60649070     -1.81829918
H       4.08057009      0.63318991     -2.19988099
H       2.64367307      0.88670927      1.33137636
H       2.11200909      1.35890759     -1.63095161
H       2.56540568      2.53194659     -0.41361801
H       0.14298923      2.62141711     -0.98786623
H       0.44752749      2.33967701      0.71907256
H      -0.96312095     -0.82659786     -1.89851717
H       0.68803760     -0.27991162     -2.10976724
H      -0.62795029      0.80630873     -2.49223817
H      -4.54637001     -0.33081842     -2.31739340
H      -5.08127219     -1.61032739     -1.26191848
H      -6.99697332     -0.21591478     -1.95792575
H      -6.20785228      1.21992192     -1.33008346
H      -7.47496123      0.79933128      0.49232653
H      -8.31572276     -1.40693109      1.23781320
H      -7.38089771     -2.21405090     -0.03417474
H      -8.70274715     -1.11559160     -0.46346267
H      -6.15714066      0.02746729      2.25039364
H      -5.51882186     -1.36158412      1.37524044
