19
CCSC(=S)NCC(=O)O
C       3.74525762      0.46918430      0.46478748
C       2.48973531     -0.17076552     -0.10061025
S       1.11175994      1.01303113     -0.04643934
C      -0.19082870     -0.04082415     -0.55723614
S      -0.40295885     -0.57094090     -2.12024196
N      -0.98093781     -0.31284317      0.52612035
C      -2.30238251     -0.93890006      0.50086771
C      -3.44372300      0.06520233      0.39932605
O      -4.62510005     -0.21420343      0.26486966
O      -3.06447934      1.35285994      0.53821362
H       3.60849411      0.77000478      1.50911163
H       4.04518212      1.34846264     -0.11547848
H       4.57393715     -0.24606026      0.43297874
H       2.23112138     -1.05761489      0.48688831
H       2.67073946     -0.48166052     -1.13398924
H      -0.78030274      0.27075234      1.33024992
H      -2.37770031     -1.64469777     -0.32911859
H      -2.41110717     -1.47231678      1.44981683
H      -3.89670659      1.86132999      0.43847588
