45
CC[n+]1c(-c2ccccc2)c2cc(N)ccc2c2ccc(N)cc21.[Br-]
C       0.28776224     -3.26985515     -0.06659164
C       0.12611904     -2.19343962     -1.12609846
N       0.41495983     -0.83545803     -0.54210679
C      -0.61833622     -0.03576412     -0.12267352
C      -1.98600580     -0.56383874     -0.27201288
C      -2.72727091     -0.30971155     -1.44133147
C      -4.02633380     -0.80093973     -1.58062988
C      -4.60592539     -1.54065305     -0.55263813
C      -3.89468223     -1.78269902      0.62026519
C      -2.59566217     -1.29240955      0.76434056
C      -0.38806705      1.24922492      0.42406081
C      -1.45228813      2.08981204      0.85896818
C      -1.24722142      3.34771599      1.42336355
N      -2.32582276      4.18196174      1.70659050
C       0.04773842      3.82811850      1.47122584
C       1.11435013      3.02567007      1.05772762
C       0.93106576      1.71834505      0.53437324
C       1.99840285      0.87786427      0.10558051
C       3.35799113      1.26001721      0.21740475
C       4.40538307      0.44101047     -0.20532344
C       4.14257214     -0.77815809     -0.79995520
N       5.18213738     -1.65418658     -1.10266228
C       2.81436718     -1.20355063     -0.86695970
C       1.72023487     -0.40320141     -0.44373388
Br      0.00000000      0.00000000      0.00000000
H       0.07001904     -4.25316113     -0.49485347
H      -0.39045075     -3.11022285      0.77529325
H       1.30270246     -3.29811119      0.33921221
H      -0.87404212     -2.23000785     -1.55795064
H       0.78457363     -2.35077900     -1.98516718
H      -2.30590923      0.28267558     -2.25296875
H      -4.59470287     -0.59823229     -2.48678222
H      -5.62200185     -1.91678163     -0.65982320
H      -4.36101572     -2.34472233      1.42768284
H      -2.07268458     -1.47640483      1.70218123
H      -2.48773725      1.76474113      0.75560821
H      -2.12078764      4.94784668      2.34324537
H      -3.19388247      3.71319531      1.94746921
H       0.24865214      4.83544073      1.83011388
H       2.10151511      3.47416974      1.14240448
H       3.64994490      2.21024050      0.65995531
H       5.43131872      0.77625162     -0.06082787
H       6.08936389     -1.21476218     -1.24835631
H       4.99618303     -2.36036864     -1.80810917
H       2.67347341     -2.20688234     -1.25446110
