41
CSc1ccc(/C=C2/C(C)=C(CC(=O)O)c3cc(F)ccc32)cc1
C       6.82927396     -0.99221690     -0.91825537
S       5.72377606     -2.14375477     -0.05928836
C       4.25809223     -1.13465023      0.06002040
C       3.68983268     -0.91091212      1.31802716
C       2.53274994     -0.13700785      1.44499769
C       1.92712471      0.41001440      0.31048875
C       0.71400586      1.21622865      0.44012042
C      -0.55730854      0.78057392      0.38115658
C      -1.73406267      1.65416098      0.51089194
C      -1.62840283      3.12980107      0.71070912
C      -2.86227030      0.92001446      0.40326985
C      -4.28992486      1.34859536      0.48720099
C      -4.91984132      1.46316039     -0.88443946
O      -4.37350283      1.71120567     -1.94598051
O      -6.26086394      1.30876890     -0.83759927
C      -2.46595198     -0.48358018      0.19859241
C      -3.26712016     -1.60536950      0.03406992
C      -2.64188244     -2.83545548     -0.14392206
F      -3.39273373     -3.93362606     -0.30378725
C      -1.25008723     -2.95377110     -0.15834999
C      -0.44656759     -1.82212806      0.00661359
C      -1.06127241     -0.58970929      0.18297255
C       2.48683452      0.18015139     -0.94978873
C       3.64429575     -0.59396876     -1.07406972
H       6.89312704     -0.04450693     -0.37639874
H       7.82970466     -1.43042608     -0.96901400
H       6.48431115     -0.80682559     -1.93866325
H       4.14318205     -1.33614202      2.21060577
H       2.10433892      0.02668532      2.43115921
H       0.92545028      2.27153501      0.59458245
H      -2.60633748      3.61819608      0.73813446
H      -1.06407673      3.59044043     -0.10706134
H      -1.12278971      3.35515706      1.65544588
H      -4.39231989      2.32057328      0.97966273
H      -4.85734979      0.62809481      1.08764343
H      -6.54031330      1.42602481     -1.77047024
H      -4.34862011     -1.55264759      0.03884881
H      -0.79934042     -3.93164569     -0.29935336
H       0.63081598     -1.93167731     -0.00694387
H       2.01820452      0.59007604     -1.84189410
H       4.04781998     -0.77943653     -2.06593233
