24
CCOC(OCC)C(C)=O
C      -3.26628256      1.14448235      0.66550494
C      -1.94085300      1.02558489     -0.06096173
O      -1.39961695     -0.26516114      0.20525085
C      -0.15705441     -0.47338463     -0.46702809
O       0.85167147      0.36095167      0.08888519
C       1.98664810      0.48267454     -0.76599388
C       2.99061157      1.39835986     -0.09360125
C       0.21022634     -1.95963773     -0.31557111
C       0.19941394     -2.52905140      1.07961780
O       0.53875491     -2.65022980     -1.28497354
H      -3.96011159      0.36577111      0.33184568
H      -3.72189439      2.12276727      0.48861621
H      -3.12867684      1.00815074      1.74328745
H      -1.25606036      1.80294147      0.29435724
H      -2.09749808      1.14902639     -1.13818501
H      -0.29774806     -0.26648454     -1.53624959
H       1.68271578      0.91069906     -1.72754624
H       2.44065948     -0.49916122     -0.93550971
H       3.29255866      0.99215845      0.87746157
H       3.88101075      1.52514068     -0.71570225
H       2.54862956      2.38214770      0.09599823
H      -0.81994828     -2.53319967      1.47231076
H       0.85215790     -1.93694817      1.72556089
H       0.57068605     -3.55759788      1.05752198
