51
O=C(NCc1ccc(OC(F)(F)F)cc1)C1c2ccccc2C(=O)N1CCOCC(F)(F)F
O       0.79421336     -2.10245863      2.38024681
C       0.02946173     -1.55309947      1.58714401
N       0.35467738     -1.33989695      0.26543730
C       1.67223877     -1.61476609     -0.25717644
C       2.56481544     -0.40372606     -0.16296044
C       3.33795723     -0.17767740      0.98063328
C       4.13654185      0.96255972      1.08063323
C       4.16364853      1.90810306      0.05085323
O       4.97971048      2.97704260      0.28654370
C       4.92716283      4.05647010     -0.62895084
F       5.35253961      3.68234726     -1.85284098
F       3.67665904      4.55958723     -0.71744112
F       5.74102834      5.04000322     -0.18516424
C       3.38798658      1.69212211     -1.08754660
C       2.59484704      0.54438963     -1.19278574
C      -1.42838886     -1.21779163      1.97920854
C      -2.32584128     -2.38884066      1.67580076
C      -2.27598782     -3.68887633      2.15199386
C      -3.22761209     -4.60146328      1.68267818
C      -4.21118493     -4.21082518      0.75535861
C      -4.25957245     -2.89902368      0.28182738
C      -3.30655710     -2.01764344      0.75625367
C      -3.14495508     -0.59173189      0.45910654
O      -3.86361350      0.05628693     -0.27628472
N      -2.06842976     -0.14397957      1.20722525
C      -1.76204750      1.26989820      1.38765809
C      -0.56147591      1.75755261      0.57142795
O      -0.57397054      1.24984515     -0.76633810
C      -1.44833911      1.97812014     -1.64539114
C      -1.49267185      1.34673676     -3.03452702
F      -1.92519641      0.06886910     -2.99895378
F      -0.26620757      1.34683314     -3.60891465
F      -2.31950018      2.04129834     -3.85090214
H      -0.23627483     -0.70668496     -0.26851100
H       2.12013692     -2.46179897      0.27455715
H       1.55438314     -1.91705624     -1.30281616
H       3.31671220     -0.88974045      1.80491043
H       4.72981835      1.12150373      1.97805122
H       3.36463198      2.39158317     -1.91740016
H       1.98522400      0.40263217     -2.08439747
H      -1.47838985     -0.95114238      3.04017568
H      -1.51328244     -4.00143152      2.85995134
H      -3.20597936     -5.62982238      2.03689771
H      -4.94060117     -4.93871863      0.40678483
H      -5.01550625     -2.57726193     -0.42606453
H      -2.64603517      1.84279851      1.08577503
H      -1.60750439      1.46300436      2.45444796
H      -0.50146087      2.85194516      0.57099410
H       0.35654074      1.39248655      1.04106413
H      -1.07449322      3.00508599     -1.73436965
H      -2.45985606      2.01635279     -1.23211501
