36
COC(=O)C(C)Oc1ccc(Oc2ccc(Cl)cc2Cl)cc1
C      -5.26596702      1.89098497      1.22867376
O      -4.86356424      0.96708944      0.21605821
C      -3.78505458      0.19962449      0.56136226
O      -3.18748278      0.28728803      1.62586625
C      -3.43796039     -0.75377730     -0.58931231
C      -4.52565051     -1.82185570     -0.68100517
O      -2.20769140     -1.45106164     -0.40599485
C      -1.03895540     -0.80866511     -0.70456636
C       0.09650085     -1.62333366     -0.64708382
C       1.36351538     -1.10629921     -0.92540259
C       1.49978193      0.24398056     -1.24417792
O       2.70966457      0.82146671     -1.55419428
C       3.76922093      0.54292318     -0.71856369
C       3.67424218      0.76101184      0.66160244
C       4.77535234      0.51134787      1.48268191
C       5.97028571      0.06050213      0.92174232
Cl      7.32500099     -0.24450253      1.93792253
C       6.08010020     -0.13895467     -0.45332868
C       4.97920515      0.11033316     -1.27452907
Cl      5.14654607     -0.14297304     -2.97376304
C       0.37201982      1.05971943     -1.32160019
C      -0.89593541      0.53752817     -1.04361875
H      -5.57056541      1.35730738      2.13432549
H      -4.45899454      2.59762868      1.44595131
H      -6.12549572      2.45237280      0.85242143
H      -3.42329482     -0.19717049     -1.53447916
H      -4.29805814     -2.53391673     -1.48175551
H      -4.58674700     -2.39743713      0.24996396
H      -5.50977357     -1.38374998     -0.87429942
H      -0.00854245     -2.67451608     -0.38849268
H       2.22642199     -1.76516034     -0.89638321
H       2.74961958      1.12778259      1.10084890
H       4.69636500      0.67468557      2.55498290
H       7.01675549     -0.48350123     -0.88268815
H       0.47911468      2.10750076     -1.59068987
H      -1.73997947      1.21579708     -1.09447963
