49
CCCCCCCCCCCCN1CCCC1=O
C       5.81463466      2.69532703      0.47819540
C       5.82634426      1.19900348      0.20875485
C       4.40907189      0.64776837      0.04610619
C       4.42841054     -0.85889947     -0.22096194
C       3.04252150     -1.44460530     -0.50618805
C       2.09719086     -1.38417353      0.69569698
C       0.76903000     -2.08275632      0.39115901
C      -0.18020119     -2.01367565      1.58906929
C      -1.48333100     -2.79149321      1.38121773
C      -2.34230613     -2.35142371      0.19179192
C      -2.78189098     -0.88874570      0.26563781
C      -3.72562464     -0.53622202     -0.88341032
N      -4.15023292      0.84972281     -0.81612109
C      -3.36968510      1.93160237     -1.35821729
C      -3.99774334      3.16162292     -0.73282555
C      -5.45478620      2.76549252     -0.52333806
C      -5.37641779      1.27148048     -0.32657167
O      -6.25945872      0.57280329      0.14145046
H       5.34344714      3.23880653     -0.34699656
H       6.83749828      3.06823503      0.59042746
H       5.26682587      2.92413123      1.39791805
H       6.40941481      1.00221726     -0.69843761
H       6.33158762      0.68824547      1.03675731
H       3.83605512      0.86131264      0.95526512
H       3.90825223      1.16214846     -0.78292208
H       5.06866374     -1.06007165     -1.08893337
H       4.87993273     -1.38074547      0.63156606
H       3.17030568     -2.49158106     -0.80828020
H       2.59148999     -0.92316327     -1.35923194
H       1.89800960     -0.34109088      0.96550505
H       2.57263369     -1.86028863      1.56162821
H       0.95614418     -3.13145682      0.13081875
H       0.30805505     -1.60695668     -0.48168106
H      -0.40132691     -0.96731954      1.82901412
H       0.32457538     -2.42938980      2.47036662
H      -1.24482361     -3.85558457      1.25994182
H      -2.08165987     -2.71379059      2.29766007
H      -1.80540060     -2.53140721     -0.74664856
H      -3.23271889     -2.99221074      0.16271704
H      -3.28198104     -0.69842075      1.22334070
H      -1.90708434     -0.22995415      0.22937589
H      -4.61433655     -1.17581991     -0.83687121
H      -3.24543442     -0.69961678     -1.85457346
H      -2.31479158      1.82708089     -1.09037835
H      -3.48011865      1.92524495     -2.44742424
H      -3.53191520      3.36049644      0.24064770
H      -3.88286575      4.05807029     -1.34843709
H      -6.06026366      2.97476356     -1.41038646
H      -5.88369573      3.25528737      0.35404707
