63
CCC(C)C(N)C(=O)OCCCCOC(=O)C(C)c1ccc2cc(OC)ccc2c1
C      -6.15574340      1.47304692      2.65314478
C      -5.31519625      0.45373586      1.89434325
C      -6.11259726     -0.34594150      0.83741611
C      -6.75727730      0.58058301     -0.20289833
C      -5.27348496     -1.45694177      0.15104247
N      -4.94143268     -2.52962844      1.12651437
C      -3.97218606     -0.92643815     -0.48574461
O      -2.85764408     -1.06087956      0.01040990
O      -4.23261457     -0.30330218     -1.66810055
C      -3.08697009      0.21328960     -2.36486774
C      -2.68900366      1.57360882     -1.79559924
C      -1.54035449      2.24461648     -2.55336439
C      -0.26502177      1.40716450     -2.63105551
O       0.13635509      1.03344537     -1.30713008
C       0.78996683     -0.15976028     -1.20235487
O       1.01800307     -0.91420853     -2.14040157
C       1.19997219     -0.41533291      0.24364982
C       0.71385232     -1.79672265      0.68640689
C       2.69762492     -0.25160452      0.44728197
C       3.18503339      0.71107587      1.33971405
C       4.56073182      0.86566206      1.53978069
C       5.48676014      0.06276944      0.85332625
C       6.87647203      0.20818031      1.04227695
C       7.78152044     -0.60096777      0.34932548
O       9.14723817     -0.55624163      0.44829487
C       9.69735292      0.42768510      1.31624249
C       7.29734737     -1.56132041     -0.53922264
C       5.92338605     -1.71663806     -0.73936398
C       5.00707413     -0.91079317     -0.04927227
C       3.62202811     -1.05554555     -0.24082396
H      -7.03043081      1.00108407      3.11263352
H      -5.55883396      1.92878990      3.45093985
H      -6.49653524      2.27869579      1.99696585
H      -4.88536569     -0.23156223      2.63352833
H      -4.47688674      0.97836803      1.42089024
H      -6.94229162     -0.84642292      1.35877505
H      -7.20727653      0.00430687     -1.01936339
H      -6.02994276      1.27735438     -0.63332262
H      -7.55920157      1.17431312      0.24905263
H      -5.86067368     -1.93872878     -0.64248435
H      -4.25667803     -2.15320044      1.78923884
H      -4.42242801     -3.26240423      0.63345199
H      -3.37665500      0.31947950     -3.41623915
H      -2.26737746     -0.51330340     -2.32931767
H      -2.42579850      1.47182824     -0.73593623
H      -3.56427292      2.23653210     -1.80952745
H      -1.31255324      3.18848816     -2.04338967
H      -1.86526335      2.49921370     -3.56874110
H      -0.43343226      0.53722762     -3.27541246
H       0.53871757      2.00670983     -3.07291821
H       0.67288735      0.31863431      0.87053232
H       1.17569809     -2.60384952      0.10540564
H       0.94169168     -1.97295672      1.74336183
H      -0.36900331     -1.88533753      0.55417884
H       2.49882479      1.35074700      1.89203438
H       4.90482308      1.62298370      2.24071603
H       7.22647242      0.96260919      1.73915568
H       9.44816074      1.43773328      0.97490084
H      10.78617271      0.32549446      1.29017413
H       9.37330858      0.26953667      2.35029949
H       7.99435308     -2.19582830     -1.08329164
H       5.57723834     -2.47232415     -1.44188980
H       3.26135986     -1.80680796     -0.94416980
