47
CCN(C(=O)Oc1cccc(NC(=O)OC(C)C)c1)c1ccccc1
C      -3.47956810      1.94243652     -2.08546238
C      -4.00391645      0.53804605     -1.81423024
N      -3.60708690      0.03399891     -0.49146590
C      -2.31403732     -0.50464493     -0.32909189
O      -1.80381895     -0.85255504      0.73113433
O      -1.62244879     -0.58362964     -1.54833254
C      -0.29370389     -1.04338483     -1.55589019
C       0.02038117     -2.04618400     -2.46788920
C       1.33503839     -2.49588471     -2.55362229
C       2.32611678     -1.93455507     -1.73954121
C       2.01183320     -0.91514323     -0.83555350
N       2.95240212     -0.30617251      0.01206394
C       4.29062580     -0.55460040      0.11848538
O       4.96169310     -1.35386126     -0.51499113
O       4.79021342      0.26737581      1.08137851
C       6.20140394      0.15539415      1.34636833
C       6.97768645      1.01014332      0.35081555
C       6.43012276      0.64666082      2.77078525
C       0.69027143     -0.46159352     -0.75478033
C      -4.53229644      0.16580915      0.61022655
C      -5.61723107      1.05954507      0.55110197
C      -6.52563594      1.18698613      1.61020345
C      -6.37538511      0.41667680      2.75578195
C      -5.31886780     -0.48085985      2.83830061
C      -4.41189572     -0.60453154      1.77738204
H      -3.80120948      2.28050230     -3.07538988
H      -3.84659135      2.65889960     -1.34450570
H      -2.38571748      1.97182914     -2.05689618
H      -5.09187313      0.49447626     -1.93302330
H      -3.61974640     -0.13877734     -2.58663942
H      -0.74784188     -2.47615586     -3.10310749
H       1.59711962     -3.28500438     -3.25398756
H       3.33772911     -2.31780110     -1.83567728
H       2.62450273      0.40515977      0.65035874
H       6.52293698     -0.89148787      1.28598198
H       8.05159469      0.98419963      0.55960902
H       6.63853007      2.05153168      0.38118087
H       6.81820578      0.65898706     -0.67378907
H       5.85313585      0.04182905      3.47879479
H       7.48769392      0.59120258      3.04617091
H       6.08893467      1.68100357      2.89043660
H       0.41969233      0.33546603     -0.06884266
H      -5.77855255      1.70776111     -0.30394950
H      -7.34736584      1.89491993      1.53656452
H      -7.07762047      0.51306416      3.57916995
H      -5.19419317     -1.09648116      3.72579413
H      -3.63126008     -1.35059639      1.89289305
