19
O=[N+]([O-])c1cccc(P(=O)(O)O)c1
O       1.83857158     -2.75452941     -1.18429240
N       2.39511005     -1.65046863     -1.10093952
O       3.57616005     -1.43450755     -1.40901784
C       1.60138732     -0.51973684     -0.60299280
C       2.19077749      0.74599825     -0.49271891
C       1.43259156      1.81661597     -0.01923032
C       0.09673040      1.62272172      0.34071969
C      -0.50416387      0.35920877      0.23443271
P      -2.18193928      0.13098457      0.68999928
O      -3.00502170      1.26989236      1.19869351
O      -2.22599527     -1.08767448      1.73372959
O      -2.91825756     -0.56597405     -0.55439919
C       0.26166276     -0.71586216     -0.24238308
H       3.22996002      0.91292465     -0.76905880
H       1.88092929      2.80402108      0.07025807
H      -0.48748001      2.46596489      0.70973183
H      -3.08568428     -1.15405411      2.18683790
H      -3.88808770     -0.54934887     -0.46533944
H      -0.20725085     -1.69617618     -0.32403027
