50
CC(C)[C@H]1CC[C@H](C(=O)N[C@H](Cc2ccccc2)C(=O)O)CC1
C      -6.05775969      0.71183849     -1.33490478
C      -5.50606432      0.25160414      0.02081105
C      -6.45727286     -0.80513208      0.59756112
C      -4.03940737     -0.26765578     -0.08357462
C      -3.09662268      0.79848190     -0.67695259
C      -1.63878388      0.34380410     -0.72555858
C      -1.13202523     -0.10198225      0.64829619
C       0.31190404     -0.59122042      0.55702575
O       0.64020848     -1.76715558      0.67797142
N       1.23185222      0.41373247      0.33541575
C       2.61198858      0.07879903     -0.03137873
C       3.59204899      1.10205369      0.55080924
C       5.02332525      0.62482258      0.47523363
C       5.50388805     -0.31707707      1.39577288
C       6.81273279     -0.79108105      1.30247596
C       7.65141551     -0.33003086      0.28985640
C       7.18349477      0.60746993     -0.62874388
C       5.87548880      1.08458162     -0.53742207
C       2.68238893      0.09602553     -1.56356571
O       2.01222086      0.85011262     -2.26069718
O       3.57808543     -0.76612487     -2.09523800
C      -2.04512419     -1.19257641      1.21285389
C      -3.50068295     -0.73693018      1.28278792
H      -5.97037921     -0.07938088     -2.08702024
H      -5.53205688      1.59799505     -1.70233017
H      -7.11555181      0.98583134     -1.25443888
H      -5.52434914      1.11705178      0.69639732
H      -6.40675444     -1.73757053      0.02542164
H      -6.22393110     -1.02757929      1.64287576
H      -7.49416041     -0.45174259      0.57628571
H      -4.03188675     -1.13350276     -0.76076462
H      -3.16601491      1.72110386     -0.08671693
H      -3.39903095      1.04938426     -1.69923771
H      -1.02779483      1.16534349     -1.11690835
H      -1.53733375     -0.48015913     -1.44421659
H      -1.14544716      0.75402045      1.33659167
H       0.87381578      1.27293362     -0.06905478
H       2.83185152     -0.93416780      0.32301474
H       3.49316619      2.06978232      0.04135709
H       3.35029307      1.29795858      1.60411148
H       4.86359474     -0.68646360      2.19518650
H       7.18060207     -1.51802965      2.02261440
H       8.67210561     -0.69764454      0.21899947
H       7.83891702      0.96879580     -1.41768079
H       5.52796530      1.81306768     -1.26836103
H       4.07863509     -1.28382201     -1.43225604
H      -1.70652537     -1.47946691      2.21613140
H      -1.98215183     -2.09789730      0.59475328
H      -4.09319678     -1.57711450      1.66001743
H      -3.59168062      0.07491369      2.01546903
