36
O=C(OCc1ccccc1)C(OS(=O)(=O)O)c1ccccc1
O      -0.92253662      0.57224590      2.49059881
C      -0.73163084     -0.08708579      1.46930784
O       0.44428767     -0.15887700      0.79458391
C       1.48727590      0.66285087      1.32714063
C       2.66605500      0.59441725      0.39068454
C       3.93027606      0.20930138      0.85752390
C       5.02160998      0.16221472     -0.01219049
C       4.86165578      0.50228256     -1.35423512
C       3.61082415      0.89066248     -1.82937875
C       2.51863789      0.93874081     -0.96197606
C      -1.80644093     -0.96594687      0.80519141
O      -3.01686717     -0.97848947      1.54755690
S      -2.98114321     -1.55403014      3.06386260
O      -1.72681601     -2.24744352      3.26135342
O      -4.24735539     -2.19646605      3.32566298
O      -2.91605940     -0.20678597      3.94529018
C      -2.11426707     -0.47112395     -0.59871746
C      -1.51274823     -1.08576179     -1.70886655
C      -1.75917810     -0.61682406     -3.00023014
C      -2.60526539      0.47191832     -3.19834256
C      -3.20479929      1.09515056     -2.10621448
C      -2.95934822      0.63011188     -0.81327000
H       1.75998453      0.29279539      2.32234444
H       1.15505631      1.70513444      1.40717343
H       4.07653258     -0.05940274      1.90144835
H       5.99807369     -0.14009171      0.35782406
H       5.71227032      0.46474933     -2.02976692
H       3.48515102      1.15625645     -2.87581587
H       1.54699526      1.24230517     -1.34739957
H      -1.42867150     -1.99482278      0.75289407
H      -2.10507340      0.29594412      3.68902156
H      -0.84076353     -1.93232066     -1.57831317
H      -1.29007272     -1.10155804     -3.85300487
H      -2.79893026      0.83421382     -4.20481487
H      -3.86685356      1.94354864     -2.26169631
H      -3.43986529      1.13218647      0.02477017
