50
CC(C)Cc1ccc(C(C)C(=O)OCC(=O)N(C)CC(N)=O)cc1
C       5.85090799      3.02748289      1.44573831
C       5.07182988      1.87607661      0.80448002
C       5.39831179      1.80258363     -0.68920596
C       3.56245691      2.06243172      1.05853207
C       2.71853123      0.88551782      0.63038314
C       1.85680745      0.98905866     -0.46561445
C       1.07628634     -0.10015557     -0.86025051
C       1.13718206     -1.32349216     -0.17075225
C       0.24952891     -2.47040946     -0.63944026
C       0.62501294     -3.85759486     -0.11487717
C      -1.22905198     -2.24181379     -0.35780200
O      -2.12548812     -2.60766163     -1.11142821
O      -1.43763119     -1.65357667      0.85219382
C      -2.79997831     -1.32844467      1.12310556
C      -3.33322567     -0.15416419      0.28509809
O      -2.62075366      0.43066449     -0.53650847
N      -4.65868161      0.22775954      0.49182771
C      -5.63440327     -0.60997571      1.17451201
C      -5.19481537      1.27159891     -0.38403842
C      -5.64754467      0.67080840     -1.71350360
N      -4.66702536      0.56384473     -2.66169093
O      -6.77930934      0.23942704     -1.91078935
C       1.99767370     -1.41827616      0.93118871
C       2.77836837     -0.32686207      1.32615035
H       5.65990077      3.07536752      2.52373340
H       5.56544950      3.99074907      1.01016884
H       6.92844891      2.89720341      1.30195521
H       5.40970974      0.94313360      1.27321748
H       5.06441310      2.70349370     -1.21627062
H       4.92201745      0.93627851     -1.15918524
H       6.47887828      1.70332506     -0.84307621
H       3.38502191      2.22411364      2.13021477
H       3.21131657      2.97507631      0.56025190
H       1.78259578      1.92016390     -1.02324288
H       0.40636862      0.01887385     -1.71129973
H       0.35442612     -2.50406419     -1.73325363
H       0.00089937     -4.62806327     -0.58259642
H       1.67147043     -4.09556488     -0.33443368
H       0.47221399     -3.93835359      0.96738789
H      -3.42696136     -2.21607997      0.98189384
H      -2.84922371     -1.03796990      2.17809086
H      -5.18232119     -1.13537277      2.01806807
H      -6.44975953      0.01159081      1.55542635
H      -6.02579512     -1.34573336      0.46645104
H      -6.04366403      1.76427548      0.10160612
H      -4.43513873      2.03899428     -0.57102089
H      -3.70272028      0.50796546     -2.33401243
H      -4.89678226     -0.00147539     -3.46798748
H       2.07186311     -2.33361887      1.51234280
H       3.43238357     -0.42913592      2.18978304
