24
C=CCc1ccc2cncnc2c1O
C       4.05814918      0.70206427      0.78720142
C       3.02516752     -0.15080790      0.79163559
C       2.19444502     -0.49274068     -0.41377360
C       0.74974061     -0.08757785     -0.24473336
C       0.34852953      1.21811335     -0.55608675
C      -0.98007355      1.60740049     -0.38478066
C      -1.92448929      0.68780322      0.11015661
C      -3.26424297      0.98758238      0.31296264
N      -4.16826682      0.10996294      0.78887550
C      -3.69331975     -1.11096914      1.06836049
N      -2.42461808     -1.52501889      0.91773057
C      -1.55199004     -0.61800341      0.43810150
C      -0.21483851     -0.97436029      0.25428484
O       0.16288313     -2.25783126      0.58409055
H       4.61890999      0.89587715      1.69651097
H       4.36728778      1.22138108     -0.11416366
H       2.75749693     -0.65484249      1.71874596
H       2.59594766     -0.01017116     -1.31461982
H       2.27032802     -1.56937131     -0.60738302
H       1.07429161      1.93843272     -0.92914039
H      -1.27405491      2.62479572     -0.63268580
H      -3.66241475      1.97422228      0.09189431
H      -4.40310573     -1.83534663      1.45386277
H      -0.66176260     -2.68059460      0.90426985
