28
CC(c1cc2ccccc2s1)N(O)C(N)=O
C      -1.68666162     -2.60510720      0.19644121
C      -1.60710972     -1.24605823     -0.49993040
C      -0.21619727     -0.65394137     -0.40115030
C       0.49902613     -0.27774786      0.71937047
C       1.80222648      0.24171964      0.42093420
C       2.81810608      0.72911123      1.27805469
C       4.02722868      1.19265843      0.75068684
C       4.24364329      1.17968059     -0.62020001
C       3.25932984      0.70425966     -1.48974098
C       2.04301469      0.23805861     -0.95353941
S       0.69870250     -0.38968386     -1.82383928
N      -2.61020031     -0.30846590      0.02883100
O      -2.54010444     -0.09591105      1.43177842
C      -3.03037506      0.77082365     -0.72086517
N      -3.60919051      1.76340368      0.01515456
O      -2.95547845      0.86103450     -1.94008164
H      -0.97686177     -3.31303750     -0.24555866
H      -2.69286462     -3.02774080      0.10123790
H      -1.46037088     -2.53362832      1.26624751
H      -1.85819303     -1.40645059     -1.55676456
H       0.10484551     -0.36308643      1.72489710
H       2.65867505      0.74475502      2.35315429
H       4.79941602      1.56519015      1.41923155
H       5.18592741      1.54263375     -1.02381914
H       3.42949360      0.69573904     -2.56253105
H      -3.38426963     -0.49968033      1.71045122
H      -3.75162884      2.61701641     -0.50798470
H      -3.19012910      1.87445506      0.92953432
