35
CCc1ccc(NS(=O)(=O)c2ccc(N)cc2)cc1
C       3.30062634     -1.30166224     -1.97295102
C       3.71093482     -1.37745642     -0.51021203
C       2.67839668     -0.75211420      0.39290148
C       1.62241545     -1.51905320      0.90259451
C       0.65274008     -0.93456196      1.72044596
C       0.72912630      0.42316214      2.02888998
N      -0.29498001      1.01316839      2.82031689
S      -1.34889707      2.12331201      2.10357723
O      -2.42900407      2.31675268      3.04939176
O      -0.59692807      3.24771880      1.58906396
C      -2.00947681      1.21939786      0.72114420
C      -3.13102554      0.40723344      0.90137518
C      -3.64853563     -0.29944597     -0.18730661
C      -3.08854595     -0.16215465     -1.46190757
N      -3.53473507     -0.96779203     -2.51548169
C      -1.94200320      0.62418498     -1.61534076
C      -1.41614829      1.33977673     -0.53685008
C       1.77273542      1.19590628      1.52412582
C       2.74358055      0.61119343      0.70844559
H       2.35536690     -1.82651799     -2.14830773
H       3.17266466     -0.26304732     -2.29641238
H       4.06650203     -1.76192999     -2.60513967
H       4.67654602     -0.87671484     -0.36933770
H       3.86725640     -2.42422487     -0.22239274
H       1.54504942     -2.57641552      0.65815881
H      -0.16342497     -1.54662380      2.09280674
H      -0.77373056      0.41799628      3.49340355
H      -3.60062358      0.31071411      1.87721615
H      -4.50062833     -0.95702399     -0.03386501
H      -4.50990011     -1.24068533     -2.44057868
H      -3.31032200     -0.60112850     -3.43560507
H      -1.44830115      0.68952834     -2.58172271
H      -0.53769461      1.96455428     -0.68179367
H       1.84127694      2.25494805      1.76124723
H       3.54968699      1.22900499      0.31841638
