26
CC1CCC(=O)N1c1ccccc1
C      -1.71127350     -1.37000254     -1.02520606
C      -1.35251857      0.10276146     -0.81380190
C      -2.57192450      0.90998281     -0.38534011
C      -2.58477316      0.75821007      1.12326182
C      -1.11846813      0.63568892      1.46634302
O      -0.69804195      0.79744487      2.60188775
N      -0.42530226      0.29174878      0.29040615
C       0.98322815      0.09429531      0.17029329
C       1.84992825      0.26620514      1.25825447
C       3.23191770      0.07489161      1.13121363
C       3.77916449     -0.29171384     -0.09196624
C       2.94313877     -0.46545180     -1.18761014
C       1.56187982     -0.27308713     -1.05661050
H      -0.83291593     -1.95636758     -1.31201092
H      -2.11932855     -1.82564583     -0.11650714
H      -2.45633476     -1.47387871     -1.82090434
H      -0.95655181      0.53537865     -1.73882285
H      -3.50622784      0.58619811     -0.85352914
H      -2.42054011      1.96733135     -0.63924980
H      -3.02692802      1.63119346      1.60997741
H      -3.10337763     -0.15120425      1.44105709
H       1.48572553      0.55505022      2.23886406
H       3.87471571      0.21581323      1.99662423
H       4.85099962     -0.43988880     -0.18943552
H       3.36148923     -0.75122180     -2.14930164
H       0.96231946     -0.42373172     -1.94788663
