26
O=C1OCCCN1/N=C/c1ccc([N+](=O)[O-])o1
O      -1.06384918     -1.61199794     -1.67856657
C      -1.88620693     -0.96372203     -1.03491332
O      -3.21553989     -1.24242215     -1.19299432
C      -4.25932863     -0.43398904     -0.62995513
C      -3.84269505      0.21891317      0.66340524
C      -2.55809981      0.95695953      0.38629290
N      -1.54849437      0.04251268     -0.11070612
N      -0.24463003      0.49682441      0.04359136
C       0.71086655     -0.37974099      0.03069954
C       2.07912260      0.04859926      0.13621037
C       2.65739433      1.30605102      0.19175259
C       4.05880634      1.11380142      0.29102808
C       4.23771553     -0.24871908      0.29279402
N       5.41650514     -1.05210102      0.37487869
O       6.49151662     -0.44027362      0.44193315
O       5.28069589     -2.28184426      0.37864191
O       3.05389977     -0.91176325      0.20102324
H      -5.12303434     -1.08462682     -0.45934586
H      -4.55071974      0.30832661     -1.38139087
H      -3.67142797     -0.54712520      1.42926634
H      -4.61993315      0.89812583      1.02691279
H      -2.19000935      1.42578497      1.30587652
H      -2.70538351      1.74029289     -0.36661660
H       0.54062006     -1.46882089     -0.01654389
H       2.11900137      2.24460682      0.15912074
H       4.83320775      1.86634767      0.35306008
