43
CCCCNCc1ccc(C(=O)c2csc(S(N)(=O)=O)c2)cc1
C      -4.99218949      2.18469316     -1.06616985
C      -4.08535744      2.62401592      0.07258414
C      -4.30432244      1.83786271      1.36932973
C      -4.09052824      0.32255135      1.27719576
N      -2.71935497     -0.00638414      0.89213073
C      -2.51674271     -1.45410988      0.85457305
C      -1.10378146     -1.77970531      0.42795961
C      -0.03117660     -1.53991431      1.30105351
C       1.27960335     -1.82804775      0.91509357
C       1.53101811     -2.34240167     -0.36146191
C       2.90735222     -2.66993591     -0.80879341
O       3.09427434     -3.73489324     -1.39179913
C       3.99477796     -1.71764037     -0.56201117
C       5.32399644     -2.09976877     -0.63234966
S       6.40985072     -0.82060990     -0.30879848
C       5.13239586      0.29102710     -0.10430572
S       5.60359258      1.95347463      0.26886055
N       4.18601335      2.85667487      0.37828460
O       6.30190695      2.46371532     -0.88612690
O       6.16104359      1.94041104      1.59984214
C       3.90079870     -0.31242857     -0.27304620
C       0.46679290     -2.60280191     -1.23193730
C      -0.84290071     -2.31356342     -0.84202991
H      -6.04428982      2.21751360     -0.76619726
H      -4.75672032      1.16885261     -1.39691219
H      -4.86423431      2.85015007     -1.92601114
H      -4.27436092      3.68461445      0.27872431
H      -3.03930236      2.55456019     -0.24573035
H      -5.32735704      2.01945259      1.72256602
H      -3.63805688      2.24794109      2.13931389
H      -4.80572734     -0.11382126      0.57070654
H      -4.30596012     -0.10737809      2.26309621
H      -2.52043830      0.37139797     -0.03312055
H      -2.69116672     -1.89568491      1.84377826
H      -3.22812092     -1.92333830      0.16347617
H      -0.22251654     -1.12481312      2.28949001
H       2.08749278     -1.65885914      1.62242757
H       5.70888612     -3.08767030     -0.85473698
H       4.13448978      3.26311417      1.31459102
H       4.20758964      3.57743239     -0.34611058
H       2.97514508      0.24712368     -0.19742060
H       0.65555601     -3.02980483     -2.21510809
H      -1.65797083     -2.51300378     -1.53457915
