26
CNC(=O)N(C)c1nc2ccccc2s1
C      -3.63970499     -1.20031069     -0.92427864
N      -2.46517204     -0.39966844     -0.70283385
C      -2.53994561      0.87068793     -0.19700344
O      -3.63755302      1.40996755     -0.03776996
N      -1.33503835      1.52284523      0.08744196
C      -1.43984911      2.91799939      0.50665493
C      -0.10934289      0.84806308      0.01635869
N       0.06767537     -0.42408856     -0.27236362
C       1.41415113     -0.74729182     -0.24452275
C       1.96580699     -2.01715939     -0.50916655
C       3.35102713     -2.20024030     -0.44332481
C       4.18757096     -1.13717928     -0.11803899
C       3.66385350      0.13160309      0.14887013
C       2.27142126      0.30295777      0.07930423
S       1.33517238      1.71727933      0.34957275
H      -4.01788169     -1.54490695      0.04185088
H      -3.36438929     -2.05821771     -1.54187360
H      -4.41077872     -0.61092997     -1.42768592
H      -1.57271231     -0.87508122     -0.59644110
H      -2.46840332      3.28870601      0.49214953
H      -0.85798442      3.54786901     -0.17387646
H      -1.06508574      3.01657870      1.53056724
H       1.31147251     -2.84530357     -0.76297700
H       3.77405153     -3.18113146     -0.64836853
H       5.26357022     -1.29334347     -0.07034156
H       4.31806851      0.96029573      0.40263996
