23
Clc1ccc(Cl)c(Oc2ccccc2)c1
Cl     -3.27503024      2.36579798      1.39857823
C      -2.76296902      0.83104912      0.81406330
C      -3.54389431     -0.29774185      1.06263017
C      -3.13740917     -1.54413478      0.57973964
C      -1.94804260     -1.65791623     -0.14418730
Cl     -1.48240946     -3.21420491     -0.72487614
C      -1.15683793     -0.52588011     -0.37276747
O      -0.00782395     -0.65213209     -1.12369382
C       1.14969199     -0.13940899     -0.58259318
C       1.96300206      0.61475014     -1.42891080
C       3.16287872      1.14233742     -0.95136082
C       3.55467376      0.90181933      0.36593906
C       2.75235232      0.12681598      1.20437530
C       1.55136529     -0.40226414      0.72956624
C      -1.57530851      0.72691888      0.09250868
H      -4.47095567     -0.21328283      1.62443962
H      -3.75268125     -2.42053435      0.76836495
H       1.66114536      0.79382851     -2.45714397
H       3.79452500      1.73598052     -1.60709164
H       4.49148480      1.31041997      0.73676151
H       3.06707770     -0.07208243      2.22564264
H       0.94652142     -1.02385379      1.38316701
H      -0.98135633      1.61371865     -0.11122008
