65
CC1(C2CCC3C4=CC=C5CC6(CCC5(C)C4CCC32C)OCCO6)OCCO1
C      -5.35283958      0.93408051      0.60661700
C      -4.78609035     -0.25924403     -0.16116610
C      -3.55789314      0.09693788     -1.03660404
C      -3.02095828     -1.12909061     -1.80964218
C      -1.55415870     -0.84765035     -2.12394546
C      -1.25240275      0.53971906     -1.54323076
C       0.20368095      0.69276748     -1.16192829
C       1.08993450      1.17587866     -2.04886804
C       2.50720193      1.15444047     -1.80468017
C       3.02631201      0.91232817     -0.58933908
C       4.52546135      0.95309814     -0.36841645
C       5.05550360     -0.16585668      0.54244079
C       4.22908321     -0.26369267      1.82542078
C       2.74245047     -0.45404773      1.52555274
C       2.12364224      0.65379230      0.62385775
C       2.06595699      1.98717134      1.41103218
C       0.66786375      0.16157979      0.18825063
C      -0.38907682      0.38685395      1.29234688
C      -1.79608372     -0.03298490      0.86780083
C      -2.27701390      0.71713140     -0.39304204
C      -2.44964252      2.22176608     -0.10036488
O       6.41892885      0.12528742      0.90993057
C       7.20386550     -0.79010610      0.14778127
C       6.30914529     -1.99113843      0.02240105
O       5.01627625     -1.42038467     -0.16466521
O      -4.47669683     -1.30022648      0.77853492
C      -5.61299774     -2.16110607      0.76161279
C      -6.09014801     -2.07514137     -0.66095893
O      -5.84522771     -0.71868387     -1.03245302
H      -5.49408134      1.79936035     -0.04906910
H      -6.33862914      0.69370096      1.02240550
H      -4.72159721      1.20890897      1.45535809
H      -3.91550851      0.79851943     -1.80722895
H      -3.08645277     -2.04996637     -1.21980730
H      -3.59576068     -1.29327870     -2.72778464
H      -1.37179028     -0.86735857     -3.20463147
H      -0.92587138     -1.63020911     -1.68157765
H      -1.49090191      1.27577822     -2.32679910
H       0.77176387      1.51644612     -3.03085554
H       3.14892191      1.35996211     -2.65777016
H       5.05212499      0.90614373     -1.33086292
H       4.78852809      1.92612812      0.06650687
H       4.57762319     -1.11314679      2.42633445
H       4.38557388      0.62635200      2.44643993
H       2.61836305     -1.43421573      1.04622159
H       2.20073679     -0.51162127      2.47754572
H       3.06073610      2.40801494      1.59370490
H       1.49302926      2.74649128      0.86581441
H       1.60573109      1.85577019      2.39640688
H       0.72403141     -0.92791641      0.04002187
H      -0.42772625      1.43719863      1.59639759
H      -0.11303676     -0.18466171      2.18607561
H      -2.48007973      0.15559131      1.70356920
H      -1.79631357     -1.11741141      0.70466823
H      -2.96702214      2.73011383     -0.92187352
H      -3.01949999      2.40037977      0.81446410
H      -1.48487672      2.72533483      0.02369089
H       8.14887329     -1.00346025      0.65303601
H       7.40834290     -0.33477087     -0.82743562
H       6.29231615     -2.58051021      0.94572963
H       6.57066942     -2.64124769     -0.81625636
H      -6.35648589     -1.76814246      1.46335581
H      -5.33611747     -3.17412460      1.06395349
H      -7.14848014     -2.32174713     -0.77736930
H      -5.50121035     -2.71988417     -1.32104754
