14
O=[N+]([O-])c1cc[n+]([O-])cc1
O       2.91977260     -1.14186126     -0.26501248
N       2.36826960     -0.03616679     -0.18513544
O       2.95878686      1.05208741     -0.19453424
C       0.90316406     -0.01379255     -0.07060344
C       0.23257425      1.20902795      0.02245992
C      -1.15942568      1.20810155      0.13053205
N      -1.88845412      0.02883931      0.14762713
O      -3.14856727      0.04808297      0.24613547
C      -1.20175287     -1.17204304      0.05404882
C       0.18945794     -1.21547288     -0.05545251
H       0.76422601      2.15801721      0.01297870
H      -1.77585768      2.09177796      0.20801988
H      -1.84927080     -2.03641724      0.07536915
H       0.68707710     -2.18018059     -0.12643301
