29
O=C(O)c1ccccc1C(=O)Nc1ccccc1
O      -1.00181481      2.13075790     -0.33532241
C      -1.94725895      1.43275176     -0.64901359
O      -2.70683332      1.66845879     -1.72937397
C      -2.41616636      0.25619872      0.09404513
C      -3.76011205      0.25846701      0.50941251
C      -4.27716311     -0.81401475      1.23520753
C      -3.45975571     -1.89604396      1.54568260
C      -2.12621396     -1.90473677      1.12961538
C      -1.58150461     -0.82532631      0.40778921
C      -0.16426045     -0.99087660     -0.03262185
O       0.17508139     -2.11479885     -0.39103918
N       0.65126403      0.11831106      0.04450517
C       2.02477620      0.20170583     -0.27289518
C       2.80872323     -0.88431717     -0.66493340
C       4.16588099     -0.71043109     -0.95755499
C       4.75035358      0.55008145     -0.86020642
C       3.97809353      1.64014527     -0.46973527
C       2.62286712      1.46580757     -0.17746948
H      -2.30094139      2.44530777     -2.16858010
H      -4.40838804      1.09800520      0.26495394
H      -5.31768967     -0.80830459      1.55172053
H      -3.85908109     -2.74109253      2.10223444
H      -1.50536454     -2.76949092      1.36415270
H       0.22526950      1.00359421      0.31347104
H       2.39635364     -1.88418270     -0.75114419
H       4.76342011     -1.56607631     -1.26161962
H       5.80462442      0.68067114     -1.08863654
H       4.42749534      2.62649344     -0.39291095
H       2.03834499      2.33293543      0.12114947
