30
C[N+](C)(C)C(Cc1cnc(S)[nH]1)C(=O)[O-]
C      -0.56816320      1.06201556      1.11964992
N      -1.44311224      0.45241780      0.03685530
C      -2.26382043     -0.68658216      0.57914556
C      -2.38255366      1.55990103     -0.46784361
C      -0.55333163     -0.00643104     -1.24272120
C       0.25813125     -1.30599132     -1.02414937
C       1.27536322     -1.31753060      0.06385529
C       1.46567745     -2.10833439      1.17720316
N       2.54927155     -1.68050497      1.90227879
C       3.05561438     -0.68798224      1.20961834
S       4.42359960      0.27038347      1.62646304
N       2.34460326     -0.44763970      0.07535453
C       0.26909175      1.13620884     -1.95366608
O       1.49524586      1.20916987     -1.65949386
O      -0.44122225      1.90097884     -2.66531021
H      -1.22224583      1.57321254      1.83403149
H       0.12123353      1.78062681      0.67153471
H      -0.03821014      0.27117276      1.64800061
H      -2.84944630     -1.11527994     -0.23903473
H      -1.59951885     -1.43706419      1.01318848
H      -2.92820983     -0.29852451      1.35748347
H      -1.79964688      2.45723281     -0.68737924
H      -3.09683926      1.78623457      0.33056179
H      -2.91663484      1.19362988     -1.34892351
H      -1.32328552     -0.28485627     -1.97843877
H      -0.43609209     -2.14050816     -0.86406951
H       0.77782627     -1.54683538     -1.96228595
H       0.87102318     -2.94886039      1.51101814
H       4.46247515      1.05906151      0.54237579
H       2.49317650      0.30067897     -0.60530234
