46
CC1(C)[C@@H](C=C(Cl)Cl)[C@H]1C(=O)OCc1cccc(Oc2ccccc2)c1
C      -4.43937075     -0.35861905     -0.81107029
C      -4.27159545      0.99319784     -0.15237443
C      -5.58362226      1.72039272      0.03154630
C      -3.19706574      1.22775312      0.89885833
C      -2.33894764      0.12918349      1.37144834
C      -1.17627190      0.23128760      2.03480772
Cl     -0.46096219      1.75473540      2.41895392
Cl     -0.36005216     -1.19055740      2.58239705
C      -3.04674148      1.84214068     -0.47690487
C      -2.04134983      1.40724923     -1.47480314
O      -2.36255654      1.00787751     -2.58434918
O      -0.77790613      1.58146780     -1.01613162
C       0.26170431      1.17132002     -1.90873929
C       0.68682816     -0.23238526     -1.56728593
C       0.12401899     -1.32987255     -2.23409703
C       0.48875128     -2.63156759     -1.88825418
C       1.41852405     -2.84863481     -0.87204173
C       1.99160517     -1.76493471     -0.20696550
O       2.86380161     -2.06668909      0.81689947
C       3.92667680     -1.21667861      1.00976398
C       4.08031385     -0.64699223      2.27319048
C       5.15918625      0.20231820      2.52074450
C       6.08568707      0.46765944      1.51063047
C       5.94047774     -0.12185946      0.25326553
C       4.86408007     -0.97334602      0.00314385
C       1.61246215     -0.46018970     -0.53884009
H      -4.94492876     -0.24960768     -1.77756493
H      -5.05336511     -1.00881784     -0.17998829
H      -3.49128550     -0.87328033     -0.99358132
H      -6.06097968      1.89588396     -0.93902444
H      -5.45066536      2.69295083      0.51674018
H      -6.26436251      1.12644952      0.65023368
H      -3.45746694      1.91849263      1.70059910
H      -2.71572470     -0.87842291      1.20620659
H      -3.21326713      2.91444798     -0.53597315
H       1.10417053      1.85850808     -1.76902382
H      -0.02474480      1.26041698     -2.96417348
H      -0.61364049     -1.17409499     -3.02029066
H       0.04246957     -3.47749216     -2.40644805
H       1.69554173     -3.86200666     -0.59560538
H       3.35427645     -0.85262914      3.05649082
H       5.27667672      0.66037596      3.49924144
H       6.92539928      1.13117188      1.70621744
H       6.66744871      0.08108732     -0.52829445
H       4.75829619     -1.44231274     -0.97149699
H       2.01847637      0.38462274      0.01310644
