20
NC(=O)N/N=C/c1ccc([N+](=O)[O-])o1
N       4.57253232      0.44011409      0.41685769
C       3.21270589      0.41062956      0.52753081
O       2.61687156      1.27572557      1.15403784
N       2.66259628     -0.66779689     -0.14125142
N       1.32367787     -0.98578141     -0.09848914
C       0.47772596     -0.00688675     -0.19473754
C      -0.93440066     -0.26419443     -0.11993951
C      -1.65685946     -1.42422402      0.10586612
C      -3.02974517     -1.07105881      0.07095457
C      -3.04921638      0.28037875     -0.17732002
N      -4.12943889      1.20357621     -0.32703244
O      -5.26975386      0.73623906     -0.20159950
O      -3.85287937      2.38434556     -0.57250957
O      -1.79336886      0.78825128     -0.29728405
H       4.97308532      1.28695847      0.80386892
H       4.95437674      0.17919751     -0.48161778
H       3.26002585     -1.48800473     -0.14890283
H       0.77980892      1.04092052     -0.36573649
H      -1.22955481     -2.40381834      0.27829342
H      -3.88818925     -1.71457119      0.20807298
