10
CC(Cl)(Cl)[N+](=O)[O-]
C      -0.86463941     -0.40216712     -0.71056066
C      -0.12662942      0.40003762      0.35277688
Cl     -0.12060013      2.12803539     -0.06859689
Cl     -0.84633459      0.11461462      1.95406627
N       1.34114864     -0.02448330      0.45682891
O       2.06482274      0.54988026      1.28823497
O       1.73906130     -0.92694578     -0.29875104
H      -0.41845042     -0.26858718     -1.70344757
H      -0.85380279     -1.47642164     -0.49007566
H      -1.91457593     -0.09396288     -0.78047521
