50
CC1(C)C(/C=C(\Cl)C(F)(F)F)C1C(=O)OC(C#N)c1cccc(Oc2ccccc2)c1
C       3.95800075     -3.39390571      0.36615260
C       4.43753434     -1.96902004      0.20580071
C       5.91940874     -1.87118948     -0.06905845
C       3.71443856     -0.90565251      1.01800614
C       4.44569769      0.22416018      1.61398272
C       4.03563129      1.50317180      1.72276816
Cl      2.47813828      1.98753505      1.11960164
C       4.83973718      2.60857320      2.34285034
F       5.10513645      3.60326845      1.45675269
F       6.04405766      2.17620927      2.80411825
F       4.20462966      3.17840911      3.40026790
C       3.54257088     -0.95261535     -0.48844572
C       2.26140544     -1.35922249     -1.10850827
O       2.22090923     -1.97277141     -2.16296635
O       1.19072763     -0.94350226     -0.39109343
C      -0.08084302     -1.33530470     -0.94431312
C      -0.39930274     -2.73795461     -0.58965660
N      -0.63935174     -3.83437048     -0.28875334
C      -1.12564155     -0.37563849     -0.39438884
C      -1.21351981     -0.10207886      0.98242627
C      -2.17908463      0.77810925      1.47499492
C      -3.07737444      1.38912707      0.60290478
C      -3.01769218      1.10498397     -0.76126981
O      -3.85346876      1.69970510     -1.67836367
C      -5.20546782      1.67159753     -1.41767423
C      -5.92181942      2.83286726     -1.70346505
C      -7.30177572      2.86725064     -1.50107560
C      -7.96592928      1.73595700     -1.02521115
C      -7.25270402      0.56874506     -0.75663471
C      -5.87209080      0.53046737     -0.96130050
C      -2.03864967      0.24443042     -1.26203271
H       4.12397574     -3.95789645     -0.55791433
H       2.89211759     -3.45114672      0.61013916
H       4.50717592     -3.88814976      1.17439256
H       6.18120107     -2.47279364     -0.94675927
H       6.24351935     -0.84420046     -0.26923976
H       6.48986545     -2.24789033      0.78678613
H       2.88269837     -1.24397844      1.63299379
H       5.41999220     -0.02570158      2.03753051
H       4.04516335     -0.18735773     -1.07336396
H      -0.05518711     -1.22228274     -2.03627292
H      -0.52296314     -0.56839377      1.68296595
H      -2.22901802      0.98820708      2.54015669
H      -3.81715630      2.08273854      0.99168782
H      -5.40504987      3.71082166     -2.08206929
H      -7.86046945      3.77293526     -1.72249939
H      -9.04165396      1.76073006     -0.87314386
H      -7.77279844     -0.31619684     -0.39758362
H      -5.33086557     -0.39039009     -0.77003380
H      -2.00385536      0.06083134     -2.33418797
