18
Cn1c(=O)ncc2[nH]c(=O)[nH]c21
C      -1.91536942     -1.35263030     -0.25998385
N      -1.14480738     -0.13853074     -0.07160130
C      -1.80532318      1.10053024      0.05205658
O      -3.03060938      1.17183723      0.00288493
N      -1.04560909      2.24806003      0.23159878
C       0.24339594      2.15757613      0.28139287
C       0.95774914      0.90474826      0.15856566
N       2.27897561      0.59072342      0.18192865
C       2.38511873     -0.80255204      0.01270025
O       3.40128678     -1.46772021     -0.02231791
N       1.05572684     -1.25719645     -0.10718928
C       0.21462740     -0.18533283     -0.01300471
H      -1.70790522     -2.04032819      0.56618814
H      -1.62384810     -1.81857832     -1.20678776
H      -2.99078581     -1.15896752     -0.28674779
H       0.85205604      3.06416725      0.42363888
H       3.06736168      1.20826503      0.29654323
H       0.80795943     -2.22407099     -0.23986536
