57
CC(C)(C)c1ccc2oc(-c3ccc(-c4nc5cc(C(C)(C)C)ccc5o4)s3)nc2c1
C      -9.59260463     -0.78807537      0.82848114
C      -8.60465114      0.08459640      0.02241716
C      -8.90963420      1.55775431      0.36938741
C      -8.89985313     -0.15653977     -1.47383149
C      -7.12087952     -0.21948471      0.31252246
C      -6.71784976     -1.21081241      1.23455133
C      -5.36838916     -1.49568998      1.50228827
C      -4.44208671     -0.74037386      0.80209378
O      -3.08495435     -0.81809723      0.87311400
C      -2.63865075      0.13807943     -0.01507275
C      -1.24782202      0.40336986     -0.26672359
C      -0.72700453      1.35511370     -1.12152066
C       0.69878500      1.35075750     -1.13562098
C       1.23028303      0.39447702     -0.29258470
C       2.62397379      0.11952498     -0.06909731
N       3.59527714      0.79413902     -0.66834392
C       4.74788505      0.22729899     -0.18750888
C       6.09712804      0.51300722     -0.44993310
C       7.10710675     -0.23767017      0.19388161
C       8.60593001      0.02994141     -0.05062044
C       8.88162726      1.18089616     -1.04483106
C       9.29035748      0.40576194      1.28148815
C       9.27260330     -1.23835486     -0.62581924
C       6.71274530     -1.26336008      1.08823061
C       5.36947793     -1.56308324      1.36225149
C       4.43680851     -0.78519880      0.69689381
O       3.08065473     -0.86452799      0.78203864
S      -0.00381829     -0.48179001      0.50708310
N      -3.61720246      0.79537160     -0.62187436
C      -4.76322084      0.24312319     -0.11048972
C      -6.11484710      0.51469119     -0.36518587
H      -9.46987923     -0.64524782      1.90825776
H      -9.46252781     -1.85412997      0.60751652
H     -10.63149690     -0.53413798      0.58643076
H      -9.96855571      1.79095705      0.20735493
H      -8.33080803      2.25660179     -0.24439206
H      -8.67771913      1.77207699      1.41960375
H      -9.95758486      0.01967479     -1.70162468
H      -8.66412960     -1.18802680     -1.76109727
H      -8.31850260      0.50655138     -2.12352758
H      -7.45399360     -1.79926083      1.77850431
H      -5.06745954     -2.25790715      2.20984360
H      -1.34443411      2.02431283     -1.71059355
H       1.30862481      2.01622213     -1.73678437
H       6.31532293      1.31162354     -1.14811131
H       8.46758069      2.13094902     -0.68773397
H       9.95865920      1.33183443     -1.18499140
H       8.45540867      0.97206700     -2.03298866
H      10.35139115      0.63551227      1.12934207
H       9.24126647     -0.40465248      2.01697834
H       8.81938614      1.28766622      1.73163560
H       9.21824744     -2.08589322      0.06606707
H      10.33444809     -1.06465122     -0.83746311
H       8.79183049     -1.54674456     -1.56224030
H       7.46885305     -1.85983735      1.59829117
H       5.07775978     -2.34907809      2.04714485
H      -6.35886252      1.28867258     -1.08499130
