6
CC#N
C      -0.48629578      0.00360084      0.00339993
C       0.97554437     -0.00722354     -0.00682054
N       2.13573193     -0.01581429     -0.01493190
H      -0.88520882     -0.58639173     -0.82708197
H      -0.87163900     -0.41868200      0.93619723
H      -0.86813270      1.02451072     -0.09076274
