54
CC(=O)OC1CCC2C3CCC4=CC(=O)CCC4(C)C3CCC12C
C       4.88064135      0.93882697      2.07664810
C       4.51254645     -0.09070433      1.05290655
O       4.87604214     -1.25711731      1.08619050
O       3.71234120      0.46839392      0.10410341
C       3.29092448     -0.39907758     -0.96583202
C       3.20789388      0.46634853     -2.22243692
C       1.87724906      1.18235955     -2.05819222
C       0.92900852      0.09640166     -1.53060571
C      -0.23852410      0.67326165     -0.69408209
C      -1.18651613      1.47874327     -1.60022948
C      -2.38442325      2.02312223     -0.83691534
C      -3.12983074      0.92996526     -0.11191836
C      -4.46198897      0.81597356     -0.25747512
C      -5.25208849     -0.15043425      0.54027743
O      -6.46161481     -0.24680802      0.34816189
C      -4.54399351     -0.91723376      1.62619584
C      -3.11642306     -1.23311868      1.20506531
C      -2.29294044      0.02454641      0.79792959
C      -1.94097158      0.83974235      2.06511088
C      -1.00834858     -0.46536107      0.02461551
C      -0.07222055     -1.34899996      0.88623766
C       1.41523106     -1.04879751      0.70358697
C       1.83430854     -0.92277395     -0.77025841
C       1.72484158     -2.30418916     -1.45811094
H       3.97940527      1.30106758      2.57750483
H       5.41304253      1.76436224      1.59765022
H       5.53942662      0.48764406      2.82380572
H       4.01862692     -1.20391956     -1.12271482
H       4.03339970      1.18060692     -2.30117837
H       3.19275190     -0.15644929     -3.12407159
H       1.97744916      2.00422508     -1.33907021
H       1.53033257      1.60662309     -3.00573017
H       0.49686218     -0.40627502     -2.40835571
H       0.17201937      1.35687880      0.06050341
H      -1.54001462      0.84742424     -2.42610013
H      -0.65056148      2.32000981     -2.05464845
H      -3.04012002      2.55174069     -1.53975628
H      -2.04782849      2.77171253     -0.10942542
H      -5.04092431      1.45812600     -0.91232835
H      -5.08389339     -1.85494681      1.79800582
H      -4.57494634     -0.33057533      2.54968329
H      -2.61987240     -1.77627578      2.01822601
H      -3.16329075     -1.92890925      0.35521119
H      -1.53148147      0.20994996      2.86066756
H      -1.20619472      1.62451145      1.85951275
H      -2.82630142      1.33351375      2.48332534
H      -1.36987231     -1.12099859     -0.78474357
H      -0.26585325     -2.40178644      0.64354969
H      -0.29293959     -1.26387456      1.95375104
H       2.00360670     -1.82809680      1.20346849
H       1.62544895     -0.11583340      1.24130247
H       2.33843547     -3.04811689     -0.93750366
H       0.69361816     -2.67161078     -1.47356923
H       2.06852499     -2.26379744     -2.49794488
