28
CC1=CC(C)(C)Nc2ccccc21
C       0.42965129      2.89658421     -0.26130567
C       0.07360705      1.44231276     -0.18756147
C      -1.17771169      1.00451385     -0.41527487
C      -1.61534953     -0.43897430     -0.34801990
C      -2.36975949     -0.69066493      0.96554811
C      -2.53611877     -0.75002542     -1.53809488
N      -0.47488178     -1.35497502     -0.43765107
C       0.77116713     -0.93329449      0.04680937
C       1.76037592     -1.89724058      0.29391575
C       3.03983734     -1.52502986      0.70550022
C       3.35453766     -0.17891112      0.84801747
C       2.39392607      0.79459150      0.56615606
C       1.10078113      0.43433593      0.15230008
H       0.74971699      3.26984818      0.71714370
H      -0.42226284      3.50863544     -0.57801091
H       1.23320452      3.06410710     -0.98638149
H      -1.95581773      1.72786293     -0.64682237
H      -3.25113452     -0.04447650      1.05151909
H      -1.73235848     -0.50281141      1.83795478
H      -2.71043905     -1.73061593      1.03347493
H      -2.02203658     -0.58581724     -2.49309963
H      -2.86290699     -1.79671213     -1.52280155
H      -3.43389249     -0.12097700     -1.52869581
H      -0.69746165     -2.30918978     -0.17560963
H       1.53677682     -2.95237670      0.16258803
H       3.78993816     -2.28567731      0.90311051
H       4.35105923      0.11736464      1.16439947
H       2.67755228      1.83761317      0.67089166
