59
C=CC(=O)OCCOc1ccc(C(C)(C)c2ccc(OCCOC(=O)C=C)cc2)cc1
C       8.71033543      3.58083338     -0.56141138
C       8.54061900      2.38019319     -1.12946834
C       7.36307762      1.54895046     -0.80442577
O       6.47948845      1.85054095     -0.02013242
O       7.43847371      0.41081383     -1.53725270
C       6.37215250     -0.52558249     -1.31532979
C       5.11499168     -0.13305748     -2.08975835
O       4.09226471     -1.11806498     -1.95190763
C       3.24828681     -1.03565442     -0.88056071
C       2.24746660     -2.00541622     -0.85589034
C       1.31481028     -2.04472143      0.18469357
C       1.35422976     -1.10929354      1.23568161
C       0.30782608     -1.18914843      2.37341665
C       0.65140462     -2.46120272      3.19254136
C       0.38253101     -0.00444680      3.37218793
C      -1.13182793     -1.18723133      1.80478773
C      -2.08761378     -2.15686380      2.14202986
C      -3.38063917     -2.10856317      1.60775279
C      -3.75593707     -1.09601889      0.72550671
O      -5.04576563     -1.17306895      0.27930533
C      -5.45609922     -0.20380613     -0.68466462
C      -6.89941301     -0.50278449     -1.08306885
O      -7.33290987      0.33157535     -2.16838344
C      -7.71656873      1.58334189     -1.81754385
O      -7.69794856      2.06329220     -0.69734651
C      -8.15739316      2.28405399     -3.04180599
C      -8.57900866      3.55380571     -2.99087447
C      -2.82460744     -0.12035166      0.38449395
C      -1.53104297     -0.16584931      0.91931114
C       2.37172065     -0.14298351      1.19879736
C       3.30673763     -0.10554058      0.15340482
H       7.99399739      3.98015410      0.15212498
H       9.57504395      4.19110719     -0.79985865
H       9.25540232      1.98334516     -1.83990124
H       6.18022020     -0.64633608     -0.24259296
H       6.72239777     -1.50467591     -1.66211534
H       4.75863491      0.87721052     -1.85855743
H       5.37081047     -0.09280006     -3.15589064
H       2.18724615     -2.73937327     -1.65569066
H       0.54546744     -2.81459083      0.16184559
H       0.53082420     -3.37895457      2.60473536
H       1.69142912     -2.43683927      3.54190154
H       0.01716030     -2.55365918      4.08230827
H       0.24850221      0.96491875      2.87753166
H      -0.39821779     -0.08475683      4.13918001
H       1.34506834      0.02269271      3.89685608
H      -1.85782889     -2.96929213      2.82521965
H      -4.10265779     -2.87281092      1.88566207
H      -5.39015241      0.80586837     -0.26330449
H      -4.82164968     -0.25517013     -1.57836824
H      -7.57736961     -0.41818320     -0.22429896
H      -6.97953373     -1.54176632     -1.42293951
H      -8.12785871      1.73354165     -3.97418639
H      -8.90406158      4.06807078     -3.88897827
H      -8.61030112      4.10617630     -2.05502167
H      -3.06474354      0.69333100     -0.29129943
H      -0.82514428      0.61113915      0.62871809
H       2.46977661      0.60633636      1.97988527
H       4.06789640      0.66756604      0.19294965
