44
COC1=C(C(=O)O)N2C(=O)C(NC(=O)C(N)C3=CCC=CC3)C2SC1
C       5.83882337      1.87481530      0.61847532
O       4.57421469      1.66483072      1.24892652
C       3.62163997      1.17779911      0.36437551
C       3.17992539     -0.09547882      0.45088199
C       3.79052960     -1.04827398      1.40421254
O       3.20621983     -1.62919462      2.30214431
O       5.09317239     -1.27354393      1.14562468
N       2.17252039     -0.54632735     -0.33590941
C       1.72388002     -1.73770945     -0.76972145
O       2.00185050     -2.87913136     -0.48869340
C       0.80386365     -1.01548257     -1.81857813
N      -0.63577848     -1.33659299     -1.68460164
C      -1.64314787     -0.45542925     -2.01678104
O      -1.42100328      0.66140308     -2.47570255
C      -3.06933602     -0.98320173     -1.69174472
N      -3.04537042     -2.46706492     -1.65324952
C      -3.53280171     -0.36503295     -0.38558720
C      -3.53714618     -1.00380855      0.80465029
C      -4.00207809     -0.39291797      2.09673853
C      -4.50616110      1.01148874      1.95039373
C      -4.51543195      1.66725220      0.78033713
C      -4.01986189      1.07023549     -0.50668734
C       1.29372798      0.29247467     -1.11764705
S       2.33519533      1.40254722     -2.10758207
C       3.07317321      2.18581006     -0.62809281
H       5.84099434      2.82474229      0.07514829
H       6.59880515      1.93380167      1.40350979
H       6.10369206      1.05113278     -0.05454387
H       5.33282341     -1.95562634      1.80646698
H       1.14407448     -1.16839956     -2.85029429
H      -0.95642560     -2.21594039     -1.27866750
H      -3.73535750     -0.68966408     -2.51055430
H      -2.88084191     -2.80146623     -2.60469516
H      -3.99010279     -2.77883233     -1.42263545
H      -3.17561309     -2.02626886      0.88146900
H      -3.17123509     -0.39972217      2.81130249
H      -4.80232121     -1.01423440      2.51374379
H      -4.87446036      1.50244331      2.84672797
H      -4.89256794      2.68605066      0.73660037
H      -4.83856831      1.10871517     -1.23693607
H      -3.21002454      1.70528009     -0.88078198
H       0.54171554      0.79929630     -0.50137336
H       3.86412379      2.84563710     -0.99412781
H       2.32067019      2.81358883     -0.13762196
