30
CP(=O)(Oc1ccccc1)Oc1ccccc1
C      -0.48327179     -2.53817089     -1.30931421
P       0.15619959     -1.40300973     -0.09033062
O       0.09776874     -1.91514949      1.32059071
O      -0.62442142     -0.02153742     -0.37609919
C      -1.95240799      0.19443985     -0.14624315
C      -2.51329535      1.29181124     -0.80118572
C      -3.86497592      1.59461930     -0.63436673
C      -4.65629089      0.80274200      0.19514441
C      -4.09327291     -0.28600130      0.86005499
C      -2.73972546     -0.59005580      0.69257601
O       1.64520384     -1.10978201     -0.63969264
C       2.51358488     -0.20826284     -0.09211123
C       2.27603651      0.48873012      1.09032091
C       3.22754439      1.39404827      1.56728183
C       4.41432374      1.60085731      0.86497526
C       4.65362725      0.90042444     -0.31560557
C       3.70382825     -0.00404135     -0.79213668
H      -1.53090765     -2.77898485     -1.11087708
H       0.08874291     -3.47017108     -1.29440501
H      -0.41274161     -2.10895383     -2.31281909
H      -1.89692060      1.91426502     -1.44487883
H      -4.29807523      2.44915670     -1.14754049
H      -5.70879264      1.03827864      0.33089918
H      -4.70692635     -0.89582387      1.51880618
H      -2.32943200     -1.43026594      1.24425395
H       1.36708040      0.34403661      1.66670511
H       3.04185875      1.93527418      2.49174105
H       5.15265884      2.30464491      1.24034650
H       5.57882034      1.05659140     -0.86376286
H       3.89417942     -0.54970958     -1.71232697
