33
CCCCCCC1(C)CCC(=O)O1
C       5.27649304      0.52693595     -0.29286936
C       4.06609064      0.36571064      0.61290480
C       2.78149281      0.18633856     -0.19566301
C       1.56632417      0.02450348      0.71921011
C       0.27947382     -0.15480978     -0.09050846
C      -0.93285216     -0.31935118      0.82993526
C      -2.28159769     -0.45676949      0.10115831
C      -2.34922587     -1.73895890     -0.73719358
C      -2.64603694      0.78196111     -0.70534245
C      -4.15507559      0.80893294     -0.63792177
C      -4.42154279      0.15293954      0.68216048
O      -5.47841691      0.18951653      1.29005613
O      -3.31502481     -0.52909329      1.10186773
H       5.16965412      1.40494009     -0.93787385
H       5.41001395     -0.35340843     -0.92966002
H       6.18380859      0.65375993      0.30596685
H       4.21899369     -0.50102035      1.26643427
H       3.97997200      1.24763695      1.25826719
H       2.87450563     -0.69459967     -0.84246778
H       2.63542866      1.05396503     -0.85060882
H       1.47387558      0.90571719      1.36568007
H       1.71233315     -0.84340867      1.37375182
H       0.38299549     -1.03412281     -0.73577548
H       0.13987119      0.71425628     -0.74341771
H      -0.98615242      0.53439139      1.51945759
H      -0.78546513     -1.19437151      1.47744641
H      -1.66265432     -1.70782569     -1.58840867
H      -2.10347000     -2.61311062     -0.12348211
H      -3.35938374     -1.91475837     -1.12344767
H      -2.26656973      0.76930694     -1.73164445
H      -2.25808171      1.68693478     -0.21995744
H      -4.61202396      0.21582114     -1.43475863
H      -4.53775274      1.83204032     -0.65261569
