18
S=C([S-])NCCNC(=S)[S-].[Na+].[Na+]
S      -3.52520997      0.18614122      1.79432546
C      -2.60324334     -0.83648037      0.80282718
S      -3.05802667     -2.41819071      0.40321975
N      -1.48740208     -0.25577008      0.36293642
C      -0.46720072     -0.91067217     -0.44104569
C       0.63397080      0.05736996     -0.92201630
N       1.41742192      0.61383466      0.17006701
C       2.49674126      1.38140939      0.02265785
S       3.18889877      1.74854709     -1.47882472
S       3.11001593      1.93826955      1.50341712
Na      0.00000000      0.00000000      0.00000000
Na      0.00000000      0.00000000      0.00000000
H      -1.25996297      0.67450019      0.69166624
H      -0.01695396     -1.70855828      0.16038862
H      -0.94207026     -1.34001244     -1.32989482
H       1.30245609     -0.50395213     -1.58378054
H       0.17750476      0.88707883     -1.47364102
H       1.03306044      0.48648527      1.09809884
