48
C[C@H](Oc1ccc(S(C)(=O)=O)cc1C(=O)N1Cc2cc(C(F)(F)F)cnc2C1)C(F)(F)F
C      -1.07448527     -3.41860377     -1.24652298
C      -2.13995873     -2.40389301     -0.84114666
O      -1.61463334     -1.68756990      0.30347812
C      -1.92483004     -0.35515905      0.27621040
C      -2.91518682      0.09406308      1.15114470
C      -3.24701946      1.45001221      1.19336391
C      -2.57756065      2.35300604      0.35955118
S      -2.97900491      4.08366088      0.43844530
C      -4.26479681      4.26476615     -0.77048523
O      -1.81282453      4.81383994     -0.01967848
O      -3.54408824      4.33368721      1.75023816
C      -1.55550580      1.92297395     -0.48960748
C      -1.22392730      0.56556201     -0.51208952
C      -0.13627659      0.13406660     -1.40338493
O      -0.40108116     -0.03788014     -2.58909865
N       1.11012472     -0.04041603     -0.85433391
C       1.49262542      0.15480414      0.54612032
C       2.94926204     -0.16553200      0.56032242
C       3.85164935     -0.15523283      1.60699955
C       5.18001974     -0.51262191      1.33331667
C       6.24153379     -0.51316643      2.39084749
F       5.73898240     -0.60862707      3.65411688
F       6.99275500      0.62127355      2.37187775
F       7.11973918     -1.54640242      2.26248919
C       5.51878374     -0.84688162      0.01852699
N       4.64726353     -0.86202768     -1.01979960
C       3.38442378     -0.51911760     -0.71218500
C       2.23951311     -0.45552611     -1.68631454
C      -3.44850717     -3.11807129     -0.49591641
F      -3.30800881     -3.95678508      0.55499204
F      -3.89549140     -3.84917063     -1.54418898
F      -4.42738868     -2.23491792     -0.18550869
H      -0.13882302     -2.91207593     -1.50410776
H      -1.39350173     -4.01069787     -2.10986793
H      -0.84483427     -4.09915376     -0.41932818
H      -2.32163374     -1.73370311     -1.69157821
H      -3.43219299     -0.60978220      1.80073398
H      -4.01774123      1.79109449      1.88313855
H      -5.11414537      3.64223197     -0.48204554
H      -4.56491836      5.31502002     -0.79184118
H      -3.88025809      3.96861881     -1.74839632
H      -1.01192058      2.62674912     -1.11758458
H       1.30048099      1.19327852      0.83050006
H       0.92414530     -0.53338397      1.17715563
H       3.54127248      0.12071055      2.61141936
H       6.53895750     -1.12251353     -0.24658005
H       2.41138732      0.29268575     -2.46521533
H       2.02762570     -1.43319212     -2.12818249
