27
O=[N+]([O-])c1cc(O)ccc1NCCCO
O      -2.46797203      2.37925981     -2.26251810
N      -1.65409562      1.49736566     -1.94774892
O      -0.63788613      1.21105597     -2.60083909
C      -1.93723887      0.71894903     -0.74129329
C      -3.29279807      0.47728574     -0.44606156
C      -3.61127318     -0.24795013      0.69002110
O      -4.90252219     -0.51382498      1.03117608
C      -2.61086946     -0.71989342      1.52598063
C      -1.26558994     -0.46977759      1.22525952
C      -0.88244886      0.22986531      0.06819089
N       0.46134795      0.55877462     -0.17922470
C       1.53804802     -0.21640845      0.44103518
C       2.88443568      0.26691418     -0.10087524
C       4.05468446     -0.39110772      0.61494020
O       3.99833773     -1.79961618      0.44440133
H      -4.07564453      0.85614038     -1.09701345
H      -5.49956447     -0.09954686      0.38572993
H      -2.87135598     -1.27494129      2.42397659
H      -0.52431012     -0.83791999      1.92911789
H       0.62609954      0.70052789     -1.18314009
H       1.40724094     -1.28291560      0.22335819
H       1.52295427     -0.07250130      1.52737981
H       2.96359410      1.35570920      0.00322902
H       2.93627696      0.03911666     -1.17300961
H       4.03564447     -0.16675116      1.68621494
H       4.99965987     -0.02838052      0.19811380
H       4.80524546     -2.16942927      0.84395344
