40
CC1=CCC(C(C)CC2CCCC2=O)CC1
C       5.43621556      0.37086240     -0.91769117
C       4.00381102      0.01227771     -0.64854435
C       3.59274116     -1.26125201     -0.53785843
C       2.17946457     -1.65903892     -0.22732633
C       1.27370640     -0.50218336      0.25993789
C      -0.24096814     -0.90274599      0.23639037
C      -0.48498053     -2.19515516      1.03248003
C      -1.14236132      0.24022733      0.76904219
C      -2.64307272     -0.05831822      0.80496673
C      -3.24120063     -0.42926368     -0.55540890
C      -4.70745004     -0.03372646     -0.44080205
C      -4.68210714      1.30840404      0.27785667
C      -3.46383119      1.17034845      1.15517402
O      -3.17834934      1.96268636      2.04436139
C       1.57199790      0.75613269     -0.57829599
C       3.04744687      1.16443053     -0.50449808
H       5.82784648      0.99791446     -0.11022873
H       5.51947235      0.92293280     -1.85937730
H       6.07555823     -0.51503914     -0.99228652
H       4.30301176     -2.07538942     -0.66502232
H       2.22101330     -2.43368251      0.54729088
H       1.75302420     -2.12051425     -1.12652305
H       1.54598977     -0.27936888      1.30199955
H      -0.51839962     -1.09907488     -0.80756716
H      -1.53459343     -2.50032976      0.99916638
H       0.08069989     -3.03605002      0.62094167
H      -0.19926234     -2.06976991      2.08213538
H      -0.81277489      0.51665791      1.77938606
H      -1.00275989      1.13610098      0.15385827
H      -2.88804289     -0.82179665      1.55189906
H      -2.76642590      0.14122341     -1.36361504
H      -3.12592495     -1.49394275     -0.78009791
H      -5.19818653      0.03123228     -1.41626817
H      -5.24841920     -0.77381249      0.16163170
H      -4.52344321      2.13335246     -0.42242986
H      -5.58403318      1.46900155      0.87207734
H       1.29462615      0.57230131     -1.62460084
H       0.98222849      1.61270218     -0.23908736
H       3.23741702      1.90624925     -1.28962360
H       3.24031598      1.65741573      0.45655757
