15
N#CC1CCCC1=O
N       2.98410248      0.43018672      0.98085952
C       2.11095128      0.13804432      0.27439934
C       0.99703111     -0.27095619     -0.58171399
C       0.00740693     -1.18117161      0.15116697
C      -0.96493957     -0.23090988      0.84261493
C      -1.19032141      0.88369136     -0.16943076
C       0.12575770      0.91567797     -0.90603394
O       0.43354103      1.80213337     -1.69396328
H       1.34635176     -0.74707388     -1.50238873
H      -0.54274547     -1.79017764     -0.57780182
H       0.48647506     -1.86268388      0.86195067
H      -0.51238881      0.17390951      1.75601334
H      -1.89940519     -0.72592417      1.12298031
H      -1.98495237      0.62577160     -0.87533163
H      -1.39686452      1.83948241      0.31667907
