16
COC(C)OC
C      -1.87800866      0.76356109     -1.09197405
O      -1.48060999     -0.39680728     -0.37627590
C      -0.22346704     -0.21869802      0.27981927
C       0.03050939     -1.48099820      1.09375829
O       0.81594168     -0.03783351     -0.67887596
C       1.95703889      0.61546215     -0.14406345
H      -1.94704196      1.62630381     -0.42228688
H      -1.18305795      0.97503427     -1.90995446
H      -2.86659848      0.57869246     -1.52114655
H      -0.29751699      0.64743683      0.95017359
H       0.95236035     -1.40844846      1.67750651
H      -0.80356934     -1.68024698      1.77445976
H       0.12922385     -2.34980565      0.43303626
H       2.69119666      0.73192073     -0.94602718
H       1.69122998      1.61005365      0.22693700
H       2.41236963      0.02437312      0.65491378
