19
OC1CCCCC1
O      -2.56577051      0.24745148      0.69141332
C      -1.26860028      0.16078798      0.11182566
C      -0.42540857      1.32535931      0.62682781
C       1.01590822      1.23734294      0.13617075
C       1.64639039     -0.10862574      0.48497197
C       0.80466809     -1.27576520     -0.02499544
C      -0.63661990     -1.18484090      0.46531288
H      -3.08920857     -0.49781237      0.35055996
H      -1.38198098      0.24547350     -0.97558765
H      -0.44514224      1.33966837      1.72448483
H      -0.87306648      2.27530977      0.31065486
H       1.60679794      2.04719118      0.57855316
H       1.04032607      1.38057541     -0.95111424
H       2.65370394     -0.16587310      0.05739478
H       1.75617298     -0.18768572      1.57362087
H       1.24795519     -2.22205066      0.30477831
H       0.81674945     -1.28193458     -1.12186852
H      -0.67158160     -1.33527585      1.55223142
H      -1.23129312     -1.99929582      0.03441702
