29
CCCCCCCC(=O)OC
C       3.91485567      1.59860375     -1.43403205
C       2.89129348      0.51852041     -1.11809736
C       2.37368354      0.64380093      0.31530099
C       1.42547330     -0.48804338      0.72144228
C       0.10808264     -0.48728582     -0.05802223
C      -0.84619625     -1.56416221      0.46894557
C      -2.14819766     -1.62864071     -0.32415296
C      -3.00295043     -0.40150135     -0.13107719
O      -3.19271981      0.44500875     -0.99378043
O      -3.52566566     -0.37643386      1.12570373
C      -4.34465955      0.76308613      1.38964039
H       4.26999123      1.49433301     -2.46406574
H       3.47836117      2.59649251     -1.32425660
H       4.78044341      1.52636633     -0.76779287
H       3.35101634     -0.46568975     -1.26408840
H       2.06408384      0.60200123     -1.83086676
H       3.22661700      0.63847728      1.00545556
H       1.87015312      1.60963476      0.44454520
H       1.20783362     -0.38301684      1.79165782
H       1.93032915     -1.45355857      0.59541991
H       0.30090803     -0.66985718     -1.12097971
H      -0.36138921      0.49988443      0.02400645
H      -0.35286617     -2.54182760      0.40720267
H      -1.05837232     -1.37925784      1.52886914
H      -2.73719314     -2.50270187     -0.02257403
H      -1.94496008     -1.74551303     -1.39489201
H      -5.20841084      0.77847666      0.71760309
H      -4.70786563      0.68824315      2.41833712
H      -3.76167879      1.68456070      1.29454841
