24
O=C1c2ccccc2C(=O)c2c(Cl)cccc21
O       0.21764858      2.65129196      0.36724183
C       0.12345539      1.43046876      0.31028713
C       1.33435877      0.59777874      0.27441571
C       2.59730156      1.20534084      0.30560906
C       3.75119220      0.42174270      0.27188652
C       3.64678694     -0.96624433      0.20713511
C       2.38845708     -1.57043131      0.17610569
C       1.22584886     -0.78623329      0.20983051
C      -0.09973329     -1.43995415      0.17633795
O      -0.13200660     -2.66207969      0.11946191
C      -1.33557279     -0.61138071      0.21196024
C      -2.63179690     -1.15935787      0.18345890
Cl     -2.98049805     -2.85172126      0.10396825
C      -3.75680672     -0.32014335      0.21983171
C      -3.61222703      1.06183364      0.28439329
C      -2.33734200      1.61349982      0.31302479
C      -1.20477919      0.78315978      0.27709179
H       2.68591272      2.28938009      0.35620058
H       4.73057064      0.89448845      0.29615478
H       4.54435852     -1.58032671      0.18069510
H       2.31881073     -2.65620152      0.12546393
H      -4.75870041     -0.74637082      0.19766759
H      -4.48892293      1.70502861      0.31223624
H      -2.22631608      2.69643164      0.36361800
