17
COC(=O)c1cccnc1
C       3.23674018      0.15899481      0.42454836
O       1.83437789      0.42725437      0.37131397
C       1.05782783     -0.67935136      0.48154721
O       1.45760789     -1.82451693      0.61567956
C      -0.37420809     -0.31663035      0.41730351
C      -0.83804703      0.99287192      0.26380954
C      -2.21065309      1.23208463      0.21430492
C      -3.07288317      0.15199426      0.32016142
N      -2.65906859     -1.12496472      0.46919904
C      -1.31831181     -1.33107531      0.51448766
H       3.50465250     -0.29082919      1.38572588
H       3.76719927      1.11026125      0.32750561
H       3.53449835     -0.49013941     -0.40487648
H      -0.14782089      1.82798875      0.18235606
H      -2.59865758      2.23805261      0.09586271
H      -4.15037074      0.28897874      0.28695647
H      -1.02288291     -2.37097406      0.63516461
