21
Cc1nc2nc[nH]c(=O)c2nc1C
C       2.64228998      0.82299108     -1.06591543
C       1.30456788      0.40911177     -0.52947745
N       0.21728020      0.96897059     -1.12869149
C      -0.99090335      0.60129297     -0.65127758
N      -2.09079867      1.19506966     -1.28912711
C      -3.25892349      0.86777736     -0.86011820
N      -3.48063657     -0.00940573      0.16275144
C      -2.46464984     -0.63974742      0.84650809
O      -2.71016308     -1.42036512      1.75889325
C      -1.09674571     -0.30296363      0.39780886
N      -0.03049406     -0.87636694      1.01358724
C       1.18193658     -0.50415617      0.53074862
C       2.37967691     -1.11986919      1.18966413
H       2.52676431      1.53824919     -1.88705264
H       3.23557128      1.30504524     -0.28301759
H       3.18455456     -0.04537995     -1.45214036
H      -4.17786123      1.28476485     -1.30166722
H      -4.42018741     -0.23277359      0.46175400
H       2.07429554     -1.80160035      1.99041803
H       3.01271735     -0.34512731      1.63273602
H       2.96170882     -1.69551730      0.46361538
