14
O=[N+]([O-])c1ccc(Cl)c(Cl)c1
O      -3.00509544     -0.83474868      0.68171518
N      -2.39617090      0.14136711      0.22312695
O      -2.92827306      1.20047088     -0.13543143
C      -0.93682963      0.03492212      0.09531814
C      -0.28987015     -1.14429334      0.48818993
C       1.09884971     -1.24095600      0.36471901
C       1.83849190     -0.16867604     -0.14728827
Cl      3.55018948     -0.36213766     -0.26995658
C       1.18467017      1.00807496     -0.53837610
Cl      2.03764791      2.36795342     -1.17778991
C      -0.20506451      1.11361003     -0.41832118
H      -0.84659727     -1.99015865      0.88897224
H       1.60074775     -2.15741168      0.67014364
H      -0.70269598      2.03198353     -0.72502161
