12
COCC(=O)O
C      -1.48859530      0.65698320     -0.12244635
O      -0.33333972      0.28939692     -0.87450222
C       0.31978274     -0.86172900     -0.32015758
C       1.46167555     -0.42430815      0.58610242
O       2.03090398     -1.14809381      1.38779758
O       1.80123049      0.87463157      0.38411669
H      -1.91053478      1.56304170     -0.56524984
H      -2.23974009     -0.13725863     -0.16913207
H      -1.22046265      0.86592858      0.91760531
H       0.75274142     -1.42777538     -1.14981978
H      -0.38009165     -1.49439631      0.23500094
H       1.20643002      1.24357931     -0.30931510
