31
CNC(=O)N(C)c1nnc(C(C)(C)C)s1
C       4.57617377     -1.74839162     -0.37116460
N       3.38640355     -0.93738495     -0.35554594
C       3.44570509      0.42298536     -0.20439823
O       4.53766696      0.99588210     -0.18703981
N       2.23724357      1.11970206     -0.11161587
C       2.32802654      2.57628044     -0.06736103
C       1.01787922      0.44151560     -0.02395032
N       0.82662232     -0.86072628      0.01993914
N      -0.50071750     -1.20911207      0.11592374
C      -1.29871173     -0.16055976      0.14641799
C      -2.81583123     -0.23015867      0.24798203
C      -3.26977222     -1.70490159      0.30549635
C      -3.30683264      0.46805853      1.52946095
C      -3.47301553      0.42111655     -0.98277362
S      -0.44596154      1.33613842      0.06088365
H       5.33274623     -1.29905764     -1.02008014
H       4.96618337     -1.82028265      0.64761638
H       4.31413270     -2.74312749     -0.73877248
H       2.50984889     -1.39812803     -0.13127375
H       1.93504686      2.93336345      0.89004403
H       3.35472451      2.94010355     -0.16221106
H       1.75318674      3.00210486     -0.89602505
H      -2.95925206     -2.25431226     -0.59129355
H      -2.84294659     -2.22131604      1.17362202
H      -4.36075152     -1.78222441      0.37886209
H      -2.83189661      0.04165717      2.42098738
H      -4.39163575      0.36187860      1.64585473
H      -3.08630739      1.54138861      1.52080353
H      -4.56341923      0.31314728     -0.95139340
H      -3.11839103     -0.03917212     -1.91260000
H      -3.25614778      1.49353301     -1.04304164
