26
C=C(c1ccccc1)c1ccccc1
C       0.12751703     -1.85193946     -1.56196759
C       0.05673097     -0.82392844     -0.69469078
C       1.29357529     -0.04668184     -0.42726499
C       2.49180209     -0.67673904     -0.05918784
C       3.63840347      0.07558469      0.20760189
C       3.59811350      1.46541288      0.11556825
C       2.41181497      2.10451266     -0.23919733
C       1.26490758      1.35287013     -0.50588239
C      -1.25373921     -0.53189477     -0.06002722
C      -1.33218990     -0.37567781      1.33108365
C      -2.55111433     -0.08137960      1.94679166
C      -3.70359970      0.06659802      1.17770765
C      -3.63839621     -0.07575947     -0.20692173
C      -2.41971390     -0.37029619     -0.82330218
H       1.04912372     -2.10859643     -2.07581439
H      -0.73362564     -2.47338318     -1.78892737
H       2.53756668     -1.75927393      0.03304873
H       4.56083721     -0.42421891      0.49116441
H       4.48983648      2.05073642      0.32393282
H       2.37642810      3.18855992     -0.30758854
H       0.34654973      1.86772143     -0.77999269
H      -0.44165673     -0.48639284      1.94612999
H      -2.59826176      0.03331384      3.02647317
H      -4.65145835      0.29656808      1.65715316
H      -4.53482966      0.04640938     -0.80906456
H      -2.38462143     -0.46212554     -1.90626928
