30
OC[C@H](O)[C@@H](O)C(O)[C@H](O)[C@H](O)CO
O       3.78804324     -1.94294026     -0.16020399
C       2.82662087     -1.12773322      0.50790776
C       2.35792943     -0.02314376     -0.43824320
O       3.52583355      0.72169681     -0.84436410
C       1.35770855      0.94789378      0.20404281
O       1.05699833      1.98318843     -0.76231782
C       0.03718067      0.32581078      0.71625984
O      -0.75963583      1.40185570      1.23590786
C      -0.75428847     -0.42729045     -0.37339404
O      -0.97904907      0.45032655     -1.49637224
C      -2.07679110     -1.06331220      0.12286575
O      -2.56127987     -1.91483412     -0.93415258
C      -3.21071741     -0.08891663      0.47131721
O      -3.42246027      0.82298781     -0.61485060
H       4.39286805     -1.31097310     -0.60068791
H       3.31336137     -0.70825604      1.39433227
H       2.00239264     -1.77151415      0.82520385
H       1.95968446     -0.45289734     -1.36357489
H       3.18086893      1.55538938     -1.22600500
H       1.84486036      1.47957457      1.03062928
H       0.44595402      1.57822363     -1.42080663
H       0.24125405     -0.35204927      1.55151562
H      -0.61099350      2.16072453      0.63347558
H      -0.13107040     -1.23981488     -0.76375266
H      -1.87535706      0.84041449     -1.36272213
H      -1.87807238     -1.71329396      0.98159349
H      -2.72221790     -1.32699531     -1.69812001
H      -4.14538173     -0.64080003      0.61867898
H      -2.99932987      0.48365179      1.37693486
H      -4.20491366      1.35302646     -0.36940363
