23
C=CC(=O)OCC1CCCO1
C       4.45964010      0.24602008      0.97801375
C       3.52014998      0.08629263      0.03746366
C       2.20984880     -0.51148225      0.36817481
O       1.86264717     -0.88458273      1.47651589
O       1.47687454     -0.56783730     -0.76964449
C       0.15173692     -1.10975036     -0.61577612
C      -0.81103041     -0.06617217     -0.04743666
C      -2.18035911     -0.63681480      0.28006214
C      -3.04759518      0.59427290      0.20122600
C      -2.43788245      1.33457765     -0.97009579
O      -1.04787946      0.97971970     -1.01508800
H       5.42002360      0.68715253      0.73391136
H       4.29087145     -0.05724406      2.00798233
H       3.68617197      0.39018800     -0.98890638
H      -0.17014252     -1.41267000     -1.61824634
H       0.18551846     -2.01182267      0.00691196
H      -0.38268171      0.42431573      0.83427045
H      -2.49715160     -1.35964187     -0.48163804
H      -2.21282214     -1.12876548      1.25607700
H      -2.93659199      1.18687357      1.11708491
H      -4.10980393      0.37692638      0.06226668
H      -2.89109657      1.02073962     -1.91627680
H      -2.53844591      2.41970491     -0.87840456
