39
COc1ccsc1CN(C(=O)CCl)c1c(C)cccc1C
C       1.78226874      2.05364613     -2.41540186
O       1.51398574      0.73249832     -1.96760410
C       2.34892167      0.28020106     -0.99751089
C       3.59343549      0.82830258     -0.56642457
C       4.16598923      0.08149330      0.43941052
S       3.21422864     -1.27428037      0.85361486
C       2.01444161     -0.86620007     -0.30214573
C       0.79891417     -1.73197938     -0.47006034
N      -0.24786376     -1.37183098      0.49572876
C      -0.46890354     -2.19364872      1.60666194
O       0.25772623     -3.16204549      1.84299954
C      -1.65031854     -1.82709365      2.50367035
Cl     -2.13282549     -3.20108281      3.52906804
C      -1.05324053     -0.23694232      0.20340942
C      -2.07149345     -0.33509606     -0.77243777
C      -2.35828063     -1.60266018     -1.53265493
C      -2.84542560      0.79757259     -1.06871655
C      -2.64114811      1.99658391     -0.39306862
C      -1.65543228      2.08309075      0.58540854
C      -0.85513258      0.97381964      0.90440959
C       0.23164228      1.18154615      1.92583175
H       2.73534530      2.10023673     -2.95255895
H       0.99064940      2.33730286     -3.11564942
H       1.76476984      2.76772361     -1.58464826
H       4.06397024      1.71708572     -0.96493571
H       5.10325681      0.26168176      0.94780502
H       0.40800312     -1.63243547     -1.48825716
H       1.06858147     -2.78888174     -0.35892328
H      -1.37267674     -1.00337722      3.16461390
H      -2.53109020     -1.56374372      1.91555875
H      -2.17366338     -2.49132310     -0.92164055
H      -1.74212952     -1.64861051     -2.43544202
H      -3.41143942     -1.64634813     -1.83187396
H      -3.62114457      0.74810646     -1.83058409
H      -3.24870293      2.86585722     -0.63188028
H      -1.50246593      3.03207705      1.09632735
H      -0.15244369      1.76213012      2.77200592
H       1.06502015      1.73003057      1.47645576
H       0.61467075      0.24659338      2.33943904
