29
C/C=C(/CCCC)C(=O)NC(N)=O
C       1.57602887      2.84902516     -0.59381093
C       0.33937732      2.00600785     -0.62996536
C       0.25026667      0.66141782     -0.60142195
C      -1.05766448     -0.07300259     -0.77509523
C      -1.52826430     -0.71883647      0.53288146
C      -2.81080035     -1.53945810      0.37481414
C      -4.03018444     -0.70131641      0.02324880
C       1.45461130     -0.21291325     -0.47223945
O       1.68401400     -1.09969521     -1.28737813
N       2.17530341      0.02467960      0.67860987
C       3.30699501     -0.60388257      1.10799397
N       3.89841720     -1.45889502      0.24726492
O       3.77217780     -0.38751151      2.22174767
H       1.63949349      3.37824517      0.36157304
H       1.53096370      3.59492475     -1.39412780
H       2.49477743      2.27581869     -0.74029209
H      -0.58224420      2.57811503     -0.73638984
H      -0.94975832     -0.83848690     -1.55347065
H      -1.82352051      0.62183041     -1.13965071
H      -1.67978008      0.05422920      1.29685346
H      -0.74619712     -1.38707592      0.91499055
H      -3.00791814     -2.05914428      1.32014676
H      -2.66718235     -2.31358968     -0.38788848
H      -3.93929912     -0.25740827     -0.97226488
H      -4.17704772      0.10364372      0.75021483
H      -4.92852467     -1.32707621      0.02493615
H       1.81331672      0.69104918      1.34362740
H       4.64632353     -2.03335704      0.60830533
H       3.34631934     -1.82733715     -0.52321285
