21
CCCc1cc(=O)[nH]c(=S)[nH]1
C       3.33015304      0.06518778      0.07881865
C       1.85579363      0.27158120      0.38998384
C       0.96504270     -0.47039264     -0.60978915
C      -0.50023974     -0.29253763     -0.30552226
C      -1.26702340     -1.27755751      0.18224299
C      -2.69871169     -1.02543033      0.44299375
O      -3.42415855     -1.90438424      0.89288541
N      -3.14701479      0.23363042      0.15103353
C      -2.37139091      1.23534180     -0.35426771
S      -2.98851996      2.74121928     -0.68975402
N      -1.05611270      0.93738723     -0.57193480
H       3.94928058      0.60313772      0.80353766
H       3.57574477      0.43773101     -0.92078744
H       3.59648571     -0.99554878      0.12592258
H       1.65153488     -0.08138084      1.40812033
H       1.63619399      1.34575071      0.37179689
H       1.22391026     -1.53713393     -0.60106864
H       1.16795030     -0.11595317     -1.62853016
H      -0.89827358     -2.26978347      0.40657384
H      -4.12417207      0.41813999      0.32377480
H      -0.47647247      1.68099542     -0.95002809
