28
O=c1cccc2n1CC1CNCC2C1
O       2.38781423     -2.15227910      1.29164502
C       2.18549485     -1.10100990      0.68826343
C       3.32629895     -0.18465826      0.43512731
C       3.14028114      0.94314853     -0.25797744
C       1.83427631      1.29027719     -0.75029293
C       0.77364127      0.49768410     -0.51547407
N       0.93792446     -0.69200380      0.20190768
C      -0.15650404     -1.65353833      0.36128425
C      -1.55075624     -1.18690719     -0.07742067
C      -2.26609810     -0.36173953      1.00965736
N      -1.62562061      0.92201095      1.30996168
C      -1.37138371      1.68728434      0.07974375
C      -0.61328527      0.88329972     -1.00278160
C      -1.41969975     -0.36510186     -1.35522393
H       4.28949546     -0.48560671      0.82485362
H       3.96556693      1.61883686     -0.45595291
H       1.73638842      2.22214065     -1.29931390
H      -0.17608343     -1.99523155      1.40389831
H       0.12301590     -2.52857728     -0.24162205
H      -2.16427422     -2.07480645     -0.27498277
H      -3.30064886     -0.17134444      0.69704899
H      -2.33161545     -0.94483846      1.93560699
H      -0.72357064      0.73547626      1.75560134
H      -0.80698378      2.58981085      0.34339508
H      -2.33028656      2.03442532     -0.32551289
H      -0.52977242      1.50604033     -1.90288873
H      -0.92331694     -0.94547884     -2.14298431
H      -2.41029790     -0.08731339     -1.73556664
