58
CCCCCCCC(=O)OCN1C(=O)NC(c2ccccc2)(c2ccccc2)C1=O
C       7.89233740      2.88038903      0.86090040
C       6.65115711      2.00769387      0.75790723
C       7.01549649      0.57086769      0.37126562
C       5.79121007     -0.32600142      0.14453874
C       4.99310440     -0.58864313      1.42505730
C       3.90846324     -1.65468181      1.24874726
C       2.78825366     -1.22034898      0.30524565
C       1.68942125     -2.25505267      0.26445601
O       1.86933562     -3.46095535      0.16659982
O       0.47451653     -1.65543682      0.32668766
C      -0.61154803     -2.57964963      0.25943671
N      -1.82857625     -1.83146862      0.38469982
C      -2.46044639     -1.58568031      1.55281547
O      -2.13145755     -1.95600456      2.66848225
N      -3.56319750     -0.80980338      1.30746330
C      -3.64286367     -0.35185115     -0.06820575
C      -4.92662097     -0.81646358     -0.77169483
C      -5.14599087     -0.47017558     -2.11840455
C      -6.30692971     -0.86573435     -2.78548927
C      -7.27029235     -1.61689087     -2.12275293
C      -7.07373551     -1.97782082     -0.79171187
C      -5.91366862     -1.58277424     -0.12087657
C      -3.47860126      1.17644571     -0.06289592
C      -2.31246178      1.82157676     -0.50863951
C      -2.19807286      3.21507937     -0.45953814
C      -3.24117001      3.98964473      0.03741355
C      -4.40383274      3.37340273      0.48829519
C      -4.52197222      1.98229321      0.44075124
C      -2.41643484     -1.13456397     -0.63395036
O      -2.01476182     -1.11469743     -1.79379054
H       7.60928518      3.90803697      1.10587221
H       8.44157711      2.89556179     -0.08541504
H       8.56540903      2.51491365      1.64277053
H       6.13012309      2.02218209      1.72556771
H       5.96835861      2.43664373      0.01108010
H       7.60352114      0.58462444     -0.55459481
H       7.65719328      0.13276810      1.14441220
H       6.13691504     -1.28477316     -0.26759558
H       5.14791851      0.13023126     -0.61581740
H       5.68002325     -0.92586724      2.21217554
H       4.53074533      0.33972679      1.78016191
H       4.36134533     -2.58818407      0.89323188
H       3.47926751     -1.87960188      2.23393356
H       3.14956716     -1.08228219     -0.72074870
H       2.37462330     -0.26313939      0.64932293
H      -0.54716160     -3.30439339      1.07983074
H      -0.60593333     -3.08840054     -0.71153990
H      -4.06837938     -0.39154170      2.07319275
H      -4.40413243      0.11353303     -2.66415514
H      -6.45578532     -0.58457578     -3.82310237
H      -8.17181862     -1.92619675     -2.64333888
H      -7.82581395     -2.56911785     -0.27281213
H      -5.79661678     -1.88912640      0.91734605
H      -1.46615154      1.26256976     -0.90797759
H      -1.28784750      3.69478618     -0.81261733
H      -3.14663466      5.07409354      0.07133987
H      -5.22278742      3.97670427      0.87493032
H      -5.44747116      1.52813029      0.79622332
