10
C=C(C)C#N
C       0.47726488      1.34871612     -0.05934636
C       0.25632477      0.02961874      0.07090099
C      -1.07840788     -0.58593739     -0.23004829
C       1.31237756     -0.82859315      0.50802002
N       2.16744684     -1.52758798      0.86255796
H       1.44693587      1.78926177      0.16027385
H      -0.30440879      2.02631270     -0.38916215
H      -1.48087629     -1.08096431      0.66025280
H      -1.81154670      0.15984804     -0.55569719
H      -0.98511027     -1.33067454     -1.02775163
