49
CN(C/C=C/C#CC(C)(C)C)Cc1cccc2ccccc12.[Cl-].[H+]
C       0.79460655     -0.77571722     -2.14430268
N       0.95466855      0.22125042     -1.17221127
C       0.03973961      1.26319527     -1.21723222
C      -1.35169178      0.85904316     -0.85482487
C      -2.04153858      1.35841928      0.14292897
C      -3.39929915      0.90038011      0.42240653
C      -4.52422738      0.51695208      0.62958847
C      -5.89357702      0.03057850      0.86131784
C      -6.08874090     -0.08822458      2.34349604
C      -6.94038113      0.94242092      0.28678011
C      -6.02991964     -1.30576483      0.15377417
C       1.94844638      0.10093585     -0.21757836
C       3.35574012      0.07122632     -0.69734392
C       3.70948389      0.18524814     -2.01293141
C       5.03307613      0.15674466     -2.35809500
C       5.99715970      0.01587810     -1.39670112
C       5.69063402     -0.10341228     -0.05036859
C       6.68296544     -0.24443624      0.89008204
C       6.36075183     -0.36274334      2.22360086
C       5.01543084     -0.33307372      2.56147500
C       4.03046503     -0.19147782      1.61563674
C       4.33782279     -0.07274180      0.28405376
Cl      0.00000000      0.00000000      0.00000000
H       0.00000000      0.00000000      0.00000000
H       0.72463394     -0.40739966     -3.20617887
H      -0.16527297     -1.37090269     -2.02180217
H       1.62217749     -1.53078999     -2.02822369
H      -0.05277522      1.60006687     -2.29789397
H       0.31925907      2.19208550     -0.67488540
H      -1.84035290      0.09149520     -1.45765459
H      -1.55870672      2.11913716      0.74317433
H      -6.57576666     -1.07993626      2.55786031
H      -5.15897354      0.07144327      2.91364605
H      -6.81371270      0.66590889      2.70170089
H      -6.73068859      1.97912262      0.59140692
H      -6.95742794      0.89120300     -0.83966970
H      -7.93445281      0.57287310      0.61706205
H      -7.07849860     -1.43265185     -0.17901171
H      -5.41323549     -1.23024149     -0.77772419
H      -5.69268529     -2.15355064      0.80594710
H       1.80291837     -0.87746656      0.34564219
H       1.83551058      0.89214890      0.58553521
H       2.94908433      0.30152498     -2.75737740
H       5.38842711      0.24327283     -3.39553605
H       7.06878711     -0.01050787     -1.63009353
H       7.71228108     -0.26196316      0.57161899
H       7.12539018     -0.47638932      2.99671854
H       4.76820791     -0.42898934      3.63080461
H       2.97425695     -0.17209316      1.91138299
