19
[Cl-].[NH3+]c1cc([N+](=O)[O-])cc(Cl)c1O
Cl      0.00000000      0.00000000      0.00000000
N      -2.26347035     -0.93420512     -0.01315034
C      -0.94321820     -0.34135761     -0.00870095
C       0.19407910     -1.13133787      0.08250938
C       1.44949586     -0.49579411      0.08191711
N       2.66695841     -1.31414201      0.17772212
O       2.51081819     -2.53908117      0.25476320
O       3.75323365     -0.72710057      0.17472785
C       1.55771483      0.90223278     -0.00837068
C       0.39772986      1.67099758     -0.09891661
Cl      0.50973415      3.38271960     -0.21015176
C      -0.85090374      1.04996615     -0.09907139
O      -2.02990770      1.74737209     -0.18546085
H      -2.45161614     -1.43857001      0.86013677
H      -2.94880166     -0.16221569     -0.08799725
H      -2.39520916     -1.55156544     -0.82180681
H       0.12026221     -2.21473963      0.15281509
H       2.53221895      1.39200323     -0.00859165
H      -1.80911827      2.70481779     -0.24237323
