34
Cc1ccccc1OP(=S)(S)Oc1ccccc1C
C       1.73186633     -1.76158337      1.16032901
C       2.67621337     -0.69026997      0.68862937
C       4.03783481     -0.77048169      1.01323989
C       4.92391362      0.21920440      0.59213976
C       4.45594136      1.29770759     -0.15275578
C       3.10170512      1.39137322     -0.48115416
C       2.21138078      0.40219710     -0.06482262
O       0.87294033      0.41165537     -0.34268663
P       0.04660298      1.48288057     -1.23651133
S      -0.06767614      3.28586193     -0.47538317
S       0.76973560      1.30344972     -3.22269097
O      -1.39624145      0.73711778     -1.30141305
C      -2.18204598      0.32106449     -0.26054204
C      -1.84295954      0.47404668      1.08399013
C      -2.70173615      0.00896612      2.08233057
C      -3.90061238     -0.61034784      1.74237768
C      -4.24562489     -0.76571308      0.40115561
C      -3.39246890     -0.30302384     -0.61124283
C      -3.78369971     -0.47569090     -2.05273850
H       2.26328080     -2.56552716      1.68037627
H       0.99979121     -1.33924436      1.85609408
H       1.20856371     -2.20938473      0.30920115
H       4.41702071     -1.60497008      1.59917246
H       5.97809701      0.15123758      0.84886502
H       5.14637450      2.07325458     -0.47628271
H       2.78676433      2.25585658     -1.05557336
H       0.65471583     -0.02920469     -3.25578804
H      -0.92226443      0.95294507      1.39999271
H      -2.43406493      0.13584840      3.12860710
H      -4.56883252     -0.96838049      2.52142734
H      -5.18776444     -1.24828690      0.15040335
H      -3.03803555     -1.08171825     -2.57750932
H      -4.75025646     -0.98119936     -2.14987526
H      -3.86845895      0.50035952     -2.54136175
