35
CCCCC1OC(C)CC(C)(C)O1
C       4.97304087      1.02439807     -0.27079619
C       3.89113218      0.06213833     -0.73457188
C       2.54745675      0.36912617     -0.07317847
C       1.46295422     -0.60326084     -0.54282605
C       0.11221751     -0.34539432      0.13000265
O      -0.33294484      0.95812465     -0.23102272
C      -1.59756113      1.25370471      0.35546497
C      -1.99405977      2.66149439     -0.06836247
C      -2.62037744      0.22445894     -0.11675371
C      -2.12614982     -1.20420500      0.15453736
C      -2.97980212     -2.19956941     -0.64323220
C      -2.21425771     -1.58025184      1.64117365
O      -0.78633040     -1.35453521     -0.32580422
H       4.71283503      2.05771728     -0.52155905
H       5.92501000      0.78661622     -0.75568864
H       5.11785720      0.95937816      0.81231631
H       4.19713950     -0.96360873     -0.49814464
H       3.79360684      0.12885840     -1.82440615
H       2.65143734      0.30275836      1.01662697
H       2.25379923      1.39916373     -0.30780818
H       1.34751978     -0.51587581     -1.63113710
H       1.77395015     -1.63721676     -0.34765688
H       0.24221997     -0.41252639      1.21677751
H      -1.49811973      1.23938572      1.44723906
H      -1.24160310      3.38474326      0.26438333
H      -2.04695865      2.74493069     -1.15954985
H      -2.96247540      2.94598667      0.35404922
H      -3.59858868      0.40107032      0.34539869
H      -2.74354926      0.34657214     -1.20184219
H      -4.03602415     -2.14575466     -0.35946875
H      -2.89950439     -2.00894377     -1.71977460
H      -2.62961060     -3.22664182     -0.48737432
H      -3.25175661     -1.57255975      1.99224415
H      -1.79839079     -2.58017788      1.81053782
H      -1.64411197     -0.90010402      2.28020656
