13
O=C([O-])CO.[NH4+]
O       0.90044482      1.58020768      0.97655203
C       0.43980755      0.42344544      0.77908148
O       0.39648078     -0.58989737      1.54486637
C      -0.18125111      0.16746051     -0.61760327
O      -0.66548015     -1.19375484     -0.69927456
N      -0.00000007     -0.00000012     -0.00000005
H      -1.02606085      0.84050126     -0.78569876
H       0.57061751      0.30926412     -1.39832644
H      -0.43455856     -1.53722679      0.20040314
H      -0.36608043     -0.21619699      0.93460132
H       0.02169452      1.01800666     -0.13201298
H      -0.60622277     -0.42456536     -0.71167018
H       0.95060874     -0.37724419     -0.09091811
