20
CC1NC(=O)C(C)NC1=O
C       2.77432032      0.64390974     -0.19796472
C       1.34642705      0.23287825      0.12472063
N       0.94896373     -0.93472359     -0.65603038
C      -0.35735583     -1.37655946     -0.61159728
O      -0.62703657     -2.54745566     -0.85754491
C      -1.37653603     -0.33207726     -0.10203624
C      -2.76017731     -0.59731373     -0.67399902
N      -0.92419509      1.01632574     -0.43073387
C       0.36471831      1.40081370     -0.12326865
O       0.63841696      2.58494815      0.04144498
H       3.46956057     -0.18275898     -0.01694611
H       2.87214702      0.93790331     -1.24914611
H       3.08905160      1.49395109      0.41639651
H       1.26770736     -0.03996166      1.18411854
H       1.61751784     -1.67825680     -0.81729159
H      -1.40431545     -0.41010760      0.99162821
H      -2.75187267     -0.54165311     -1.76844691
H      -3.11916254     -1.59313748     -0.39376447
H      -3.48246349      0.14024399     -0.30818855
H      -1.58571580      1.78303135     -0.41166916
