30
C=CCOC(=O)CCCCCC
C       5.17683943     -0.42974719      0.70998479
C       4.62458581     -1.37073007     -0.06862194
C       3.29407149     -1.30019558     -0.76607656
O       2.64707290     -0.05460133     -0.49623828
C       1.42868325      0.07047403     -1.09103413
O       0.90685761     -0.77206810     -1.80707169
C       0.84200130      1.42274922     -0.75510044
C      -0.65141752      1.52290678     -1.06498160
C      -1.50843248      0.71945153     -0.08043063
C      -2.99787434      0.85707133     -0.40566987
C      -3.90698204      0.16071604      0.60927257
C      -3.75530283     -1.35253836      0.62297296
H       4.67866663      0.51360925      0.91100916
H       6.14921676     -0.58692384      1.16646342
H       5.17780701     -2.29405436     -0.22922522
H       2.66704961     -2.12587684     -0.40978657
H       3.45753960     -1.40334342     -1.84514727
H       1.38393840      2.16686629     -1.34958350
H       1.01354822      1.63461523      0.30631343
H      -0.84962128      1.18712619     -2.09003165
H      -0.94561805      2.57837267     -1.01221704
H      -1.32198745      1.07411747      0.94043461
H      -1.21677780     -0.33533855     -0.11538940
H      -3.26317227      1.92135709     -0.42865758
H      -3.19566937      0.46053152     -1.40901815
H      -3.71640789      0.55563108      1.61394219
H      -4.94827061      0.40354054      0.36584088
H      -2.76579361     -1.65375586      0.97883530
H      -4.49731802     -1.79788955      1.29353012
H      -3.90723244     -1.77207322     -0.37649168
