7
C1CO1
C       0.74732382      0.07979781     -0.01484165
C      -0.74763849     -0.07352684     -0.02666895
O       0.00899382     -0.17918956      1.18613320
H       1.35176210     -0.72533203     -0.41252831
H       1.16543201      1.07040197     -0.13983435
H      -1.16977185     -0.98394254     -0.43247769
H      -1.35610141      0.81179118     -0.15978226
