50
O=C1c2ccccc2C(=O)c2c1ccc1c2[nH]c2ccc3c4ccccc4c(=O)c4ccc1c2c43
O       5.84481044     -2.30557305      0.56822868
C       5.18816840     -1.30827423      0.29219002
C       5.86418834     -0.04952856     -0.06735374
C       7.26408190      0.00462370     -0.09297196
C       7.91118687      1.19353342     -0.43263190
C       7.16437810      2.32806033     -0.74665120
C       5.76954183      2.27498631     -0.72137646
C       5.11706602      1.08221121     -0.38059049
C       3.64134370      1.03610230     -0.35668119
O       3.00268644      2.04705096     -0.63668775
C       2.95171111     -0.22959488      0.00491560
C       3.71226848     -1.35459246      0.31615610
C       3.08066629     -2.55278053      0.65830993
C       1.68577218     -2.63293306      0.69120852
C       0.88198065     -1.52185078      0.38420518
C       1.53905430     -0.30845276      0.03758892
N       0.73701893      0.80921542     -0.27129364
C      -0.66195025      0.80377268     -0.25939875
C      -1.36275447      1.96247689     -0.58058937
C      -2.75638592      1.96990822     -0.57237096
C      -3.49611626      0.82073443     -0.24322160
C      -4.98341806      0.80791375     -0.22860552
C      -5.77427566      1.93244342     -0.53949824
C      -7.17439592      1.88141159     -0.51478027
C      -7.82697423      0.70256664     -0.17790808
C      -7.07814440     -0.42583625      0.13438455
C      -5.67470256     -0.37053878      0.10842186
C      -4.91764009     -1.59511558      0.44773907
O      -5.50421213     -2.63122821      0.74391847
C      -3.43929668     -1.54986796      0.42406518
C      -2.73330882     -2.71130974      0.74598248
C      -1.34068967     -2.71133946      0.73568107
C      -0.61606040     -1.55483532      0.40457403
C      -1.35079754     -0.37580549      0.07793029
C      -2.77682840     -0.36126090      0.08437853
H       7.85382846     -0.87754413      0.15113496
H       8.99815953      1.23381230     -0.45202155
H       7.66795222      3.25530722     -1.01154934
H       5.19563079      3.16659668     -0.96826008
H       3.67023075     -3.43589555      0.90268646
H       1.25255441     -3.59080663      0.96420670
H       1.23277873      1.66764468     -0.51673353
H      -0.82664143      2.87198604     -0.84072322
H      -3.24052428      2.90610915     -0.83248055
H      -5.32717392      2.88415585     -0.81086836
H      -7.75244553      2.76947203     -0.76062790
H      -8.91280172      0.66065400     -0.15807686
H      -7.58571152     -1.35160852      0.39888699
H      -3.26718267     -3.62363856      1.00688937
H      -0.84662634     -3.64253782      0.99431060
