10
CC(Cl)[N+](=O)[O-]
C      -1.08775991      0.40617084      0.11018638
C       0.06188440     -0.58110011      0.05800484
Cl      0.41525735     -1.28068957      1.65093154
N       1.32626652      0.11296728     -0.38739426
O       1.95679205     -0.42185818     -1.31120471
O       1.64455874      1.17436236      0.16934154
H      -2.01662173     -0.09937033      0.39557837
H      -0.91316853      1.21190696      0.83229554
H      -1.24793890      0.87020005     -0.86940753
H      -0.13926999     -1.39258929     -0.64833170
