31
NC(Cc1ccc(O)cc1)C(=O)NCC(=O)O
N       1.19164033     -0.47811629     -1.90307396
C       0.86405008     -1.60851599     -0.98802324
C      -0.64124258     -1.93302663     -0.89708033
C      -1.54936070     -0.73869696     -0.69194757
C      -2.22571765     -0.16728592     -1.78079745
C      -3.04588003      0.94715549     -1.59912046
C      -3.19439839      1.49312878     -0.33094146
O      -4.00267633      2.58309850     -0.19844373
C      -2.53875509      0.93971712      0.76294888
C      -1.71923435     -0.17677330      0.58126189
C       1.50577811     -1.35955921      0.39687234
O       1.06104619     -1.79684216      1.45298388
N       2.68286054     -0.64163004      0.31252432
C       3.31359191     -0.10050127      1.49977489
C       2.71360982      1.24973635      1.85887483
O       1.99032067      1.94508126      1.16178544
O       3.10781218      1.68384729      3.07431257
H       0.74853130     -0.65983482     -2.80423732
H       0.70844481      0.35487640     -1.54695830
H       1.37334473     -2.49900933     -1.37898079
H      -0.94278041     -2.43934969     -1.82424439
H      -0.83168500     -2.65944577     -0.09656985
H      -2.12100622     -0.58504869     -2.77926066
H      -3.56792209      1.38755465     -2.44369279
H      -4.00182724      2.85267236      0.73456929
H      -2.64992798      1.35670243      1.75866181
H      -1.21592451     -0.60613876      1.44582128
H       2.77447038     -0.13340017     -0.56707648
H       4.37589029      0.03329205      1.27939814
H       3.18071108     -0.79188818      2.33689765
H       2.65623615      2.54820049      3.17376155
