29
CC(C)=CCC1(C)C(=O)NC(=O)NC1=O
C      -3.40174065     -0.98667698     -0.77320104
C      -2.24590359     -0.16173422     -0.26513240
C      -2.21772655      1.24283558     -0.80161929
C      -1.34770891     -0.69854798      0.58379512
C      -0.14485537     -0.03360671      1.20280893
C       1.22374775     -0.50099629      0.64227149
C       1.43630818     -2.00670188      0.85380210
C       2.29115179      0.27642586      1.39750909
O       2.91138895     -0.16273503      2.36193342
N       2.50220228      1.55822541      0.96230825
C       2.32900876      1.94829372     -0.33083128
O       2.94044087      2.90399152     -0.79685820
N       1.52691163      1.17165529     -1.10800698
C       1.32274257     -0.15409596     -0.83574994
O       1.23655337     -0.96971560     -1.74931985
H      -4.35179941     -0.52099152     -0.49133601
H      -3.39777230     -2.00418440     -0.36836514
H      -3.36129545     -1.06369523     -1.86470543
H      -1.35732921      1.82316325     -0.46350908
H      -2.18446606      1.22551751     -1.89623566
H      -3.11997659      1.78099067     -0.49279278
H      -1.49279066     -1.73564396      0.89068951
H      -0.17943502     -0.24402928      2.28143377
H      -0.23540544      1.05638622      1.13974506
H       1.31404529     -2.28402821      1.90701734
H       0.73744738     -2.60933903      0.26370846
H       2.44839460     -2.30329118      0.55271604
H       3.22460447      2.06496907      1.45744052
H       1.59325733      1.38755938     -2.09445516
