31
CC(C)[C@H]1CC[C@@H](C)CC1O
C      -2.14589735      1.44767963     -0.80095938
C      -2.06250933      0.22056307      0.11104216
C      -3.01916773     -0.86237802     -0.40183296
C      -0.61832423     -0.33141611      0.30843283
C       0.04368610     -0.81597950     -0.99471510
C       1.44042110     -1.39004307     -0.74751122
C       2.37085289     -0.42307470     -0.00522839
C       2.82861261      0.72787104     -0.90483540
C       1.70212295      0.08751242      1.27509642
C       0.30661411      0.67132449      1.03454689
O      -0.25129568      1.03883438      2.29488448
H      -1.82405549      1.21964650     -1.82161581
H      -1.53598092      2.27299521     -0.42351932
H      -3.17830643      1.81092922     -0.85705206
H      -2.44046002      0.52349928      1.09643322
H      -4.05344810     -0.50166557     -0.37712203
H      -2.96708282     -1.75934032      0.22391532
H      -2.79661304     -1.14873530     -1.43441916
H      -0.72094612     -1.20548556      0.96930243
H      -0.56553471     -1.59627382     -1.46349217
H       0.11420850      0.00444211     -1.71694231
H       1.88827072     -1.68705139     -1.70336803
H       1.34049372     -2.30830688     -0.15411314
H       3.27272108     -0.97842012      0.28378778
H       1.99500771      1.34481239     -1.25243067
H       3.52630539      1.38012069     -0.36872565
H       3.34863140      0.34128770     -1.78788420
H       2.33495961      0.83599200      1.76868660
H       1.62441203     -0.74011222      1.99352858
H       0.40307439      1.59259036      0.45200367
H      -0.36077234      0.22818210      2.82068276
