46
COc1ccc(-c2cnc3[nH]cc(C(=O)NC(C)CO)c3n2)cc1OC
C      -6.26191083     -0.38860711      1.16667404
O      -4.92952731     -0.61087547      1.60426282
C      -3.93070130     -0.55132819      0.66532508
C      -4.13343558     -0.28141741     -0.68985101
C      -3.05082615     -0.24098514     -1.57790027
C      -1.73807660     -0.47648896     -1.14051977
C      -0.57995416     -0.44548826     -2.05951836
C      -0.65768475     -0.82156944     -3.40719727
N       0.38078535     -0.82139424     -4.28831319
C       1.51516537     -0.41883952     -3.68386798
N       2.74597149     -0.32047979     -4.26766107
C       3.66326809      0.09879967     -3.33559454
C       3.00997324      0.29215264     -2.12392322
C       3.64212193      0.72909200     -0.88730627
O       4.85935314      0.84213530     -0.77663693
N       2.76749206      0.98844035      0.14374575
C       3.22184467      1.18308936      1.51368870
C       2.19442883      2.00943322      2.28227719
C       3.48750185     -0.17220900      2.19348174
O       2.28112855     -0.93094707      2.30939451
C       1.64799131     -0.04016053     -2.35413688
N       0.59016005     -0.04164268     -1.49934054
C      -1.55058343     -0.73822885      0.23254643
C      -2.62368196     -0.77357460      1.13377751
O      -2.49548561     -1.03000312      2.47728560
C      -1.17947557     -1.05700010      3.01501794
H      -6.57063987     -1.14615264      0.43883204
H      -6.91921647     -0.47745314      2.03703676
H      -6.38148970      0.62184547      0.76220496
H      -5.12333289     -0.08977888     -1.09065593
H      -3.25813753     -0.00153629     -2.61892119
H      -1.59270127     -1.16773959     -3.83789559
H       2.93164561     -0.54111236     -5.23577710
H       4.70520287      0.22911467     -3.60063380
H       1.80636011      0.67637530      0.01605507
H       4.16651831      1.73909948      1.48163766
H       2.51512095      2.16745707      3.31700201
H       1.21257917      1.52457324      2.29653567
H       2.06432584      2.99154017      1.81430482
H       4.20574350     -0.76219705      1.61415249
H       3.89123651     -0.02214890      3.20007617
H       2.54317026     -1.81457154      2.62190670
H      -0.53779325     -0.92484218      0.58222719
H      -1.26485953     -1.16944064      4.10015537
H      -0.61908289     -1.91776497      2.63635344
H      -0.65049241     -0.11875403      2.81969324
