34
CCOP(=S)(OCC)SCCS(=O)CC
C      -4.70000001     -1.69067668     -2.24879704
C      -3.21421554     -1.49489815     -2.47374198
O      -2.75264283     -0.49769916     -1.57664389
P      -1.15927895     -0.38142329     -1.27567219
S      -0.10814234     -0.01206571     -2.87598013
O      -1.15632242      0.90809839     -0.28728276
C      -2.14918480      1.02950057      0.71780554
C      -1.67617209      2.04273002      1.74027793
S      -0.61172836     -2.05048608     -0.10508279
C       0.65391527     -1.44872388      1.05214807
C       1.85568001     -0.83755010      0.34614349
S       3.14662670     -0.43073782      1.57262284
O       2.56187031      0.58369661      2.51106490
C       4.23059584      0.45268611      0.40458835
C       5.47668209      0.95038300      1.10970638
H      -5.10174599     -2.44647324     -2.92983553
H      -5.24090585     -0.75059826     -2.40481507
H      -4.89553671     -2.00391145     -1.21732145
H      -2.68328535     -2.43754229     -2.30726834
H      -3.03476061     -1.16384864     -3.50177434
H      -2.32734604      0.06499256      1.20200913
H      -3.08189353      1.37105533      0.25799714
H      -2.41569919      2.16889597      2.53596726
H      -0.72630805      1.72812574      2.18603279
H      -1.49878024      3.01427341      1.26632251
H       0.96319256     -2.30175233      1.66666683
H       0.18922450     -0.72251267      1.72697754
H       2.29702107     -1.53241225     -0.37550372
H       1.58232482      0.09158503     -0.16063974
H       4.50318079     -0.23831116     -0.39876221
H       3.67477099      1.29272739     -0.02309641
H       6.04402131      0.12134039      1.54594722
H       5.22620480      1.64701430      1.91687318
H       6.12863783      1.47289995      0.40306650
