29
COc1c2occc2c(CN)c2ccc(=O)oc12
C       3.95019815      0.40408804     -0.21097259
O       2.77272913      1.16763842     -0.42929414
C       1.56761261      0.54952491     -0.14596659
C       1.35166165     -0.74386316      0.33973624
O       2.31100136     -1.67300714      0.63184157
C       1.68655990     -2.78951815      1.07266483
C       0.32687846     -2.60497032      1.07558619
C       0.08908310     -1.27856107      0.60302174
C      -1.07867579     -0.49626963      0.38037145
C      -2.45306014     -1.05467988      0.67189019
N      -3.15194713     -1.42565269     -0.55166395
C      -0.89278520      0.81698996     -0.13251180
C      -2.01089505      1.71144626     -0.44200238
C      -1.80016727      2.94586100     -0.90629323
C      -0.45269016      3.47997908     -1.13322045
O      -0.29055494      4.62328003     -1.54256469
O       0.59654679      2.62192249     -0.86274869
C       0.40275169      1.30088665     -0.37071979
H       4.80592422      1.02999193     -0.48285280
H       3.97441132     -0.48021455     -0.85559909
H       4.06109783      0.14023843      0.84552108
H       2.33306291     -3.61377570      1.34075296
H      -0.40522384     -3.33855317      1.38130543
H      -3.04190225     -0.32594430      1.23994970
H      -2.37665016     -1.93733788      1.31604488
H      -4.02901482     -1.88504017     -0.31224642
H      -2.59850177     -2.11627046     -1.05795331
H      -3.02841593      1.35943990     -0.31487640
H      -2.61903468      3.61237113     -1.14719996
