19
O=C1NC(=O)C2CCCC12
O       1.06708237      2.70647150     -0.11208735
C       1.04891306      1.49472984     -0.25002106
N       2.03754039      0.65038379      0.13354575
C       1.72114305     -0.65902302     -0.01736537
O       2.40975280     -1.59529935      0.35260358
C       0.37642389     -0.76494035     -0.69072446
C      -0.66506642     -1.44648138      0.19126383
C      -1.32034281     -0.30820640      0.96182428
C      -1.37399973      0.82486481     -0.05409419
C      -0.07824813      0.69177984     -0.84808417
H       2.87549148      0.96209838      0.59800881
H       0.49912686     -1.27019470     -1.65390875
H      -1.41520142     -1.93673156     -0.44098913
H      -0.24468933     -2.20025263      0.86397644
H      -2.31271306     -0.57767187      1.33464602
H      -0.69982118     -0.02191802      1.81914969
H      -2.22984791      0.67330768     -0.72293328
H      -1.49262616      1.79800389      0.43207228
H      -0.20291775      0.97907955     -1.89688291
