22
CC(CCO[N+](=O)O)O[N+](=O)O
C       1.72078780      1.17472932      0.13993224
C       1.28033149     -0.18505390     -0.39569145
C      -0.07189824     -0.11182541     -1.11826106
C      -1.23827785      0.33882452     -0.24036676
O      -2.42205225      0.29900233     -1.03399371
N      -3.54798545      0.69593372     -0.25802916
O      -3.43148221      1.16897143      1.07105826
O      -4.83814492      0.64721570     -0.81596554
O       1.15033752     -1.11255693      0.68107235
N       2.40673416     -1.67652967      1.05157742
O       3.61855339     -1.36617178      0.39075902
O       2.47186204     -2.59259912      2.11724545
H       1.09175512      1.50009701      0.97514898
H       1.69677375      1.93762023     -0.64415159
H       2.74260891      1.12527764      0.53065170
H       2.00685832     -0.54848978     -1.13281105
H      -0.31523325     -1.10522187     -1.51839135
H       0.00385440      0.55027303     -1.99024324
H      -1.07521942      1.36393932      0.10931673
H      -1.35228391     -0.33176484      0.61866006
H      -5.32642010      0.98633823     -0.04796420
H       3.42854073     -2.75800917      2.09104901
