38
COC(=O)[C@@H](C)N(C(=O)c1ccccc1)c1ccc(F)c(Cl)c1
C      -3.95242835     -3.10804253     -0.87331782
O      -3.51337826     -2.05137231     -0.01900759
C      -2.47362810     -1.32584619     -0.51938050
O      -2.00173847     -1.48011944     -1.64259610
C      -2.03804603     -0.21345245      0.44797322
C      -2.42234406     -0.44546491      1.91242284
N      -0.58746646      0.04953408      0.26747313
C       0.30628986     -0.97677959      0.62171914
O      -0.03162850     -1.98312935      1.24325202
C       1.71220211     -0.92435654      0.14559456
C       2.73985080     -1.23662491      1.04277617
C       4.06746461     -1.20259795      0.61552013
C       4.36604775     -0.87652613     -0.70831546
C       3.33986229     -0.59666990     -1.61204015
C       2.01027774     -0.62916532     -1.19025555
C      -0.18941092      1.38338081     -0.05796762
C      -0.86647557      2.10013653     -1.05762231
C      -0.48391463      3.40383644     -1.38478472
C       0.57413580      4.00116105     -0.71023571
F       0.92491676      5.25250946     -1.04026742
C       1.25198536      3.30944991      0.28857802
Cl      2.55546682      4.04808386      1.13723877
C       0.87141474      2.00585664      0.61713299
H      -4.36228559     -2.70116243     -1.80291043
H      -4.74512183     -3.65491502     -0.35535682
H      -3.13215778     -3.80247434     -1.08089142
H      -2.60939367      0.66787751      0.13313776
H      -2.12375184     -1.43190037      2.27808041
H      -1.96968135      0.31227876      2.56064935
H      -3.50967667     -0.38269525      2.03478340
H       2.50638257     -1.50582663      2.07028783
H       4.86877836     -1.43769149      1.31167857
H       5.40143871     -0.85431204     -1.04038650
H       3.57607588     -0.36327742     -2.64731070
H       1.21413874     -0.43898611     -1.90606100
H      -1.66767084      1.63900320     -1.63168839
H      -0.99769978      3.95179333     -2.16905473
H       1.39116982      1.49848702      1.42534992
