42
CCCCc1c2ccccc2cc2ccc3ccccc3c12
C       4.26756591     -1.89966806     -0.72647410
C       3.02816589     -1.38989286     -1.44432952
C       2.14858418     -0.55138571     -0.51664249
C       0.89959008     -0.04294184     -1.24778512
C      -0.04631531      0.72526280     -0.33027229
C       0.22931276      2.14017638     -0.16826875
C       1.36214127      2.82772977     -0.68781798
C       1.56924156      4.19833686     -0.50037249
C       0.64625774      4.94009740      0.21529678
C      -0.47529999      4.30522274      0.73737656
C      -0.68510047      2.92524900      0.55206319
C      -1.82775535      2.33061848      1.07672688
C      -2.09188692      0.96192905      0.95257094
C      -3.29291369      0.52406492      1.51201991
C      -3.67135642     -0.80549811      1.46250568
C      -2.83373681     -1.75332969      0.89472491
C      -3.26613135     -3.09213196      0.92090874
C      -2.47344581     -4.11567592      0.42408240
C      -1.23049277     -3.80359107     -0.08662427
C      -0.80257946     -2.46817841     -0.11991128
C      -1.58242879     -1.36637437      0.33119000
C      -1.20083665      0.07017057      0.29346739
H       4.87728802     -1.06855529     -0.35795526
H       4.88219190     -2.49574266     -1.40824263
H       3.99541771     -2.53089808      0.12548761
H       2.45873990     -2.24451912     -1.82749126
H       3.33454575     -0.78961986     -2.30889002
H       1.86828598     -1.14244741      0.36312694
H       2.73283550      0.29342698     -0.13297970
H       0.36192852     -0.83662380     -1.77244214
H       1.20104058      0.59609888     -2.08760701
H       2.12638783      2.29880324     -1.25062297
H       2.45286492      4.67602793     -0.91493648
H       0.79451973      6.00518745      0.36773483
H      -1.19472767      4.90077238      1.29609593
H      -2.53933232      2.96249446      1.60899696
H      -3.97115532      1.22538862      1.99604507
H      -4.62486499     -1.09010398      1.90229697
H      -4.23427260     -3.35182224      1.34576401
H      -2.81708799     -5.14509886      0.45591701
H      -0.57701330     -4.59027255     -0.45485194
H       0.20182827     -2.33268611     -0.48988099
