54
CCC1(O)C(=O)OCc2c1cc1n(c2=O)Cc2cc3c(CN(C)C)c(O)ccc3nc2-1
C      -5.70934125      1.80857699      0.60176137
C      -5.41687185      0.84564728      1.74546421
C      -5.11100389     -0.60789679      1.32130502
O      -4.79241704     -1.33469973      2.52507026
C      -6.39596494     -1.25004700      0.75465629
O      -7.28763876     -1.63662447      1.51314633
O      -6.55280842     -1.32341777     -0.58242647
C      -5.45940280     -1.23768738     -1.51975913
C      -4.12290078     -1.00750316     -0.91210018
C      -3.93688913     -0.72452405      0.39011562
C      -2.59154600     -0.50086740      0.90633562
C      -1.55489525     -0.56845981      0.06724332
N      -1.73535595     -0.85034676     -1.27314571
C      -2.95594654     -1.08451582     -1.85084630
O      -3.11555254     -1.32976736     -3.04184891
C      -0.45585497     -0.87918758     -1.98862624
C       0.52641113     -0.56798722     -0.90234747
C       1.89959493     -0.44225245     -0.93467677
C       2.59292099     -0.12929668      0.26208106
C       4.01258637      0.03463785      0.34720396
C       4.90999791     -0.15921735     -0.87012719
N       6.13397006      0.68155756     -0.86178963
C       7.09548922      0.16825950     -1.84558307
C       5.80481358      2.07856932     -1.18921377
C       4.57676607      0.28544744      1.61206830
O       5.92508834      0.42634640      1.79802022
C       3.79447702      0.41182217      2.74913818
C       2.41332237      0.28592023      2.64983622
C       1.79332745      0.01720402      1.44363200
N       0.45391810     -0.10106837      1.47025781
C      -0.12807535     -0.38906449      0.30427640
H      -6.56964895      1.48028873      0.01128331
H      -5.94148713      2.80090579      1.00195546
H      -4.84898186      1.91622681     -0.06518222
H      -6.27569637      0.84961092      2.43040107
H      -4.58113763      1.24170827      2.33768396
H      -5.64649008     -1.51781802      2.96640720
H      -5.70100421     -0.42938433     -2.21837795
H      -5.46570832     -2.17870193     -2.08052386
H      -2.44486442     -0.29338968      1.96294738
H      -0.30549525     -1.87523256     -2.41580570
H      -0.46647922     -0.11702222     -2.77355215
H       2.40929876     -0.59264397     -1.87891381
H       4.37456725      0.02580140     -1.80608000
H       5.19357770     -1.22026355     -0.86181442
H       7.39387468     -0.85487715     -1.59089764
H       8.01054408      0.77091960     -1.83801585
H       6.68815486      0.16818329     -2.86310125
H       5.35436596      2.17619135     -2.18370054
H       6.70892322      2.69700887     -1.15894817
H       5.11380352      2.50495560     -0.45455579
H       6.32535320      0.52666131      0.90534209
H       4.25822314      0.61100700      3.71118233
H       1.80608897      0.39030735      3.54617710
