17
OCCOCCO
O       1.50311167      0.96269718     -2.23795700
C       1.69291672     -0.36423171     -1.75109721
C       0.42165864     -0.85142353     -1.06373462
O       0.16107570      0.00161979      0.06081182
C      -1.01163693     -0.42458970      0.77023720
C      -1.21191646      0.50080470      1.96583101
O      -1.42956687      1.83605569      1.51467803
H       1.13666074      1.46496923     -1.48597125
H       2.53306589     -0.34292602     -1.04997905
H       1.94951358     -1.00742599     -2.59727470
H       0.55223475     -1.88388388     -0.72289112
H      -0.42636839     -0.79076795     -1.75478457
H      -1.87298459     -0.35993060      0.09623367
H      -0.88247937     -1.45664099      1.11285406
H      -2.07851325      0.19210115      2.55682434
H      -0.32531730      0.50823679      2.60751443
H      -0.71145452      2.01533584      0.87889384
