26
O=C1C=CC(=O)C=C1.Oc1ccc(O)cc1
O      -0.97883174     -2.46883196      0.12048996
C      -0.52845847     -1.33289012      0.06505099
C       0.92583459     -1.08662755      0.00042366
C       1.41790273      0.15447801     -0.06014778
C       0.52845846      1.33289011     -0.06505094
O       0.97883175      2.46883194     -0.12048997
C      -0.92583461      1.08662756     -0.00042366
C      -1.41790273     -0.15447800      0.06014784
O       2.62353625     -0.80912021     -0.09281108
C       1.32846216     -0.38570012     -0.04264736
C       0.32943601     -1.33531245     -0.23514615
C      -1.01103597     -0.94936271     -0.19269982
C      -1.32846210      0.38570025      0.04264702
O      -2.62353631      0.80911986      0.09281236
C      -0.32943605      1.33531272      0.23514551
C       1.01103594      0.94936278      0.19269919
H       1.56437027     -1.96171343      0.00491633
H       2.48187691      0.35244289     -0.10802463
H      -1.56437026      1.96171346     -0.00491649
H      -2.48187689     -0.35244291      0.10802471
H       3.20387591     -0.04491878      0.05751943
H       0.59600808     -2.37245118     -0.41756504
H      -1.78314686     -1.69643038     -0.34385641
H      -3.20387555      0.04491813     -0.05751813
H      -0.59600802      2.37245158      0.41756433
H       1.78314652      1.69643052      0.34385615
