53
CN1CC[C@]23c4c5ccc(OCc6ccccc6)c4O[C@H]2[C@@H](O)C=C[C@H]3[C@H]1C5
C      -5.55293505      0.15002712     -1.43622160
N      -4.32958536      0.91095795     -1.18647317
C      -3.29452217      0.61636697     -2.18930318
C      -2.46936444     -0.65171034     -1.91703869
C      -2.00563744     -0.74921390     -0.44935539
C      -1.05690975      0.36174192     -0.13631493
C      -1.40061804      1.63538477      0.27693836
C      -0.35517876      2.52991978      0.50338020
C       0.98804432      2.11815983      0.34564359
C       1.30670779      0.79704184     -0.00404100
O       2.55880252      0.27001677     -0.12188166
C       3.65672568      1.17735473     -0.02728942
C       4.95603704      0.45891147     -0.31945004
C       6.13839190      0.86117496      0.32286212
C       7.35284356      0.23593477      0.03199386
C       7.40193161     -0.79037244     -0.91050700
C       6.23844902     -1.18979747     -1.56667033
C       5.02367550     -0.56491411     -1.27806955
C       0.24983052     -0.06901977     -0.21754626
O       0.33349080     -1.41992667     -0.45904200
C      -1.03079190     -1.91995531     -0.21027584
C      -1.11292929     -2.56044672      1.20769982
O       0.17805886     -2.81705949      1.75579608
C      -1.90736368     -1.80357426      2.23365087
C      -2.87765020     -0.93163788      1.91577796
C      -3.22377339     -0.63724169      0.47556781
C      -3.84321766      0.77538798      0.21619694
C      -2.84857317      1.94179287      0.56142895
H      -5.96425411      0.40792505     -2.41930447
H      -6.32597320      0.40737408     -0.70380320
H      -5.39995876     -0.93333095     -1.41074227
H      -3.73873270      0.55022489     -3.19115331
H      -2.61988372      1.47894251     -2.25212398
H      -1.61353909     -0.66699146     -2.60438286
H      -3.07706599     -1.53367195     -2.15879431
H      -0.56624468      3.54657973      0.82814629
H       1.76122205      2.85374221      0.54430771
H       3.55209060      1.98902534     -0.75850155
H       3.69327746      1.58764282      0.98983652
H       6.12141245      1.66352188      1.05888569
H       8.26096769      0.54953913      0.54293044
H       8.34653101     -1.27859688     -1.13422344
H       6.27386968     -1.98975879     -2.30158632
H       4.12374297     -0.88731465     -1.80008657
H      -1.19558733     -2.71782631     -0.94574634
H      -1.60090453     -3.53798935      1.10742172
H       0.80648053     -2.26115597      1.25398183
H      -1.70329961     -2.02766359      3.27790217
H      -3.45720622     -0.45739955      2.70345950
H      -3.96337654     -1.40188670      0.20213502
H      -4.70973080      0.91695420      0.87699399
H      -2.93329915      2.14540627      1.63757138
H      -3.14447683      2.86140438      0.04090207
