44
CCC(C)NCc1cccc(S(=O)(=O)c2csc(S(N)(=O)=O)c2)c1
C      -0.59695226      3.12952747     -0.97193151
C      -1.44221860      2.17534492     -0.13872298
C      -2.05577764      1.01879313     -0.95277315
C      -3.05143768      1.52804601     -2.00230645
N      -2.71847872      0.12699489      0.01564802
C      -2.99718960     -1.21999312     -0.48717831
C      -1.74656924     -2.04440406     -0.69217955
C      -1.50455857     -2.69369805     -1.91096758
C      -0.34097803     -3.44423555     -2.10052519
C       0.60082926     -3.54721231     -1.07724308
C       0.36861786     -2.89520637      0.13495115
S       1.56627074     -2.98320151      1.43362965
O       2.53701542     -4.01398674      1.11927445
O       0.89301312     -2.91469901      2.71461174
C       2.44680478     -1.49078210      1.32597190
C       3.76715183     -1.39767595      0.93727116
S       4.30939581      0.22560930      0.91566045
C       2.78768583      0.81362198      1.43541683
S       2.64895950      2.56929291      1.62562021
N       3.87718114      3.09740888      2.63819964
O       2.90346103      3.14672265      0.32710387
O       1.41733251      2.79057992      2.34611268
C       1.88510090     -0.21377032      1.63100092
C      -0.80904572     -2.17319670      0.34246617
H      -0.11523927      3.86773873     -0.32189763
H       0.18713068      2.59117694     -1.51363962
H      -1.20464360      3.68103038     -1.69511786
H      -0.79981562      1.76225781      0.64958443
H      -2.23063150      2.74944913      0.36365982
H      -1.23620266      0.49510860     -1.45715663
H      -3.49062532      0.70514787     -2.57468948
H      -3.87219031      2.08773171     -1.53562050
H      -2.56605812      2.18976057     -2.72893567
H      -3.59172396      0.55490139      0.32199999
H      -3.60049348     -1.18258759     -1.40119090
H      -3.61229721     -1.74309420      0.25521899
H      -2.22167825     -2.61611849     -2.72540200
H      -0.16994077     -3.94754488     -3.04886309
H       1.50533302     -4.12863900     -1.23648409
H       4.43937378     -2.20026636      0.66291860
H       3.46567513      3.55572182      3.45197784
H       4.50130874      3.71535885      2.11774259
H       0.86732280     -0.03923214      1.97054859
H      -1.00021775     -1.68778143      1.29883328
