30
CCCCC(=O)OCn1c(=O)[nH]cc(F)c1=O
C       5.55886238     -0.41775443     -0.45092584
C       4.11013336     -0.76837950     -0.75045562
C       3.14612477      0.07508839      0.08258386
C       1.69178320     -0.27993766     -0.22099815
C       0.72673155      0.54678368      0.59551611
O       1.03486327      1.40294195      1.41163040
O      -0.54937058      0.19169658      0.28450028
C      -1.52751992      0.93631831      1.01292618
N      -2.83279541      0.47514874      0.59761403
C      -3.39466592     -0.58730721      1.28737133
O      -2.87546214     -1.15191397      2.24684088
N      -4.62286063     -1.00976019      0.83861204
C      -5.27903085     -0.46095719     -0.22490408
C      -4.73774630      0.54735534     -0.90332914
F      -5.35053742      1.11351818     -1.95912792
C      -3.41472120      1.08372790     -0.50774695
O      -2.90520036      2.00569847     -1.14053191
H       5.76301649      0.63355606     -0.67765626
H       5.79540204     -0.59445070      0.60319304
H       6.23090517     -1.03277799     -1.05756831
H       3.91553156     -0.61139019     -1.81778247
H       3.94773442     -1.83265718     -0.54395654
H       3.31630067      1.13992945     -0.12021979
H       3.34845034     -0.07798939      1.15010714
H       1.51344721     -1.33679901      0.00683715
H       1.48112019     -0.10210057     -1.28150728
H      -1.39602324      0.77244302      2.08902140
H      -1.42173410      2.00546700      0.79384711
H      -5.02913776     -1.78563921      1.35132483
H      -6.24360078     -0.87985868     -0.48807363
