19
CCC(=O)C(C)C
C       2.83847423     -0.02150803      0.00905894
C       1.49116991     -0.48057340      0.53768623
C       0.34309300      0.38968564      0.04909646
O       0.51797328      1.32110946     -0.73659365
C      -1.04742666      0.02420404      0.56490435
C      -1.64522470     -1.07732771     -0.30192583
C      -1.95710225      1.24943156      0.59551783
H       3.63684487     -0.66601134      0.38954352
H       3.05239388      1.00708620      0.31781385
H       2.86388682     -0.05548100     -1.08515058
H       1.30702252     -1.51095845      0.21842369
H       1.50179481     -0.44864123      1.63217545
H      -0.93842458     -0.33834220      1.59400511
H      -1.01920625     -1.97549382     -0.28636230
H      -1.73259902     -0.75722112     -1.34619289
H      -2.64198434     -1.35732163      0.05441516
H      -1.50914398      2.05110942      1.19271641
H      -2.92839783      1.00106411      1.03590146
H      -2.13314371      1.64518951     -0.41089425
