6
O=P([O-])([O-])[O-].[Cr+3]
O       0.24667176      1.49464961     -0.35025719
P      -0.00192227      0.05035135     -0.00652062
O       1.48527920     -0.76694323     -0.00935994
O      -1.01762828     -0.66764251     -1.14300942
O      -0.71240042     -0.11041523      1.50914717
Cr      0.00000000      0.00000000      0.00000000
