54
CC(C)CCCCCCCCOCCCNCCC#N
C       5.35474091      2.44858540     -1.76664399
C       4.14406085      1.53114375     -1.94751148
C       3.07468253      2.24299196     -2.78375959
C       3.61610432      1.09168063     -0.56945904
C       2.49610276      0.05127454     -0.64887467
C       2.09257982     -0.43205548      0.74684302
C       1.01298246     -1.51143723      0.66735863
C       0.64252765     -2.10573142      2.02910192
C       0.07119418     -1.12543401      3.05821692
C      -1.15805185     -0.31129730      2.63310862
C      -2.40258360     -1.14870290      2.34664563
O      -2.25556439     -1.81357219      1.09485258
C      -3.41356913     -2.56387138      0.72014043
C      -4.38984502     -1.71670052     -0.09804359
C      -3.83324761     -1.28706777     -1.46536360
N      -2.62250663     -0.46278383     -1.42186221
C      -2.89385346      0.91605514     -1.00189933
C      -1.62371510      1.76596389     -1.09758937
C      -1.87336209      3.10733294     -0.55828930
N      -2.08458336      4.15676493     -0.11005739
H       5.76962169      2.73999233     -2.73625462
H       6.14909892      1.94343782     -1.20641118
H       5.08415097      3.36213328     -1.22512643
H       4.47553881      0.64179299     -2.49955541
H       2.63157643      3.08066846     -2.23412411
H       3.50888165      2.63817156     -3.71079055
H       2.26725624      1.55499004     -3.06673579
H       3.26082462      1.96773243     -0.01147158
H       4.44828999      0.66692350      0.00772813
H       1.62028233      0.47943413     -1.14613064
H       2.83171455     -0.80058022     -1.25173322
H       1.72995018      0.42195277      1.32974803
H       2.97157056     -0.83169139      1.26596561
H       1.37083709     -2.32932337      0.02887667
H       0.12605668     -1.10570515      0.17314435
H       1.53889152     -2.56791249      2.46156686
H      -0.06611961     -2.92562166      1.87722215
H      -0.18216993     -1.69188958      3.96343704
H       0.86054127     -0.42605413      3.35940204
H      -0.91017095      0.30145931      1.76015564
H      -1.39301812      0.37983831      3.45212843
H      -3.27489859     -0.48896895      2.30584840
H      -2.56119906     -1.88431300      3.14457783
H      -3.90936152     -2.97986739      1.60611909
H      -3.06821349     -3.41111214      0.11953927
H      -5.29656187     -2.31051167     -0.26892655
H      -4.69479014     -0.83110029      0.47096740
H      -4.61887394     -0.77379924     -2.03496249
H      -3.59052398     -2.19100080     -2.03827374
H      -1.98636969     -0.89489401     -0.73914699
H      -3.27934055      0.93566229      0.02484826
H      -3.66077938      1.35882273     -1.64832274
H      -0.80379836      1.29923157     -0.53928280
H      -1.30298756      1.83896284     -2.14617098
