31
Brc1cccc(Nc2ncnc3cc4[nH]ncc4cc23)c1
Br      5.35459824      1.48666426      2.30531054
C       4.45745991      0.19742905      1.25096411
C       5.16420186     -0.89133229      0.74797882
C       4.49529336     -1.84971100     -0.00828740
C       3.12877079     -1.70595897     -0.26651158
C       2.41262708     -0.59225874      0.20303488
N       1.01937762     -0.52698371     -0.02950278
C       0.18858186      0.62671282     -0.08617178
N       0.75780660      1.84003308     -0.19929725
C      -0.06497665      2.88664898     -0.28915154
N      -1.40073833      2.84321647     -0.27949619
C      -1.96215229      1.64018025     -0.15275858
C      -3.35137807      1.58171067     -0.13021811
C      -3.97927010      0.34062939      0.01198726
N      -5.30015489     -0.01723435      0.07086831
N      -5.50029778     -1.33901927      0.22199522
C      -4.26260320     -1.83884134      0.26724235
C      -3.27043723     -0.84341043      0.13647752
C      -1.86831442     -0.79546351      0.11325423
C      -1.21047154      0.45856786     -0.04258404
C       3.09230580      0.34168343      0.99428401
H       6.22586281     -1.00603026      0.94831494
H       5.03381042     -2.71200539     -0.39288183
H       2.62789052     -2.47669180     -0.84719427
H       0.73675538     -1.16398671     -0.76721228
H       0.39434952      3.86481037     -0.38202581
H      -3.93058725      2.49653501     -0.21803016
H      -6.11108129      0.58915072      0.01588038
H      -4.13301824     -2.90619412      0.39182996
H      -1.30213778     -1.71442054      0.23242868
H       2.55792729      1.18557006      1.42097721
