30
CN(C=O)c1ccc(S(=O)(=O)N(C)C)cc1
C      -4.06830225      1.45469258     -0.02393008
N      -3.52667020      0.10645953      0.09435565
C      -4.43010828     -0.90188196      0.40774286
O      -5.62804383     -0.75563701      0.63226025
C      -2.12503248     -0.11351549     -0.13812788
C      -1.50645539     -1.35028876      0.11847984
C      -0.13728593     -1.54745688     -0.11139838
C       0.63825583     -0.49879647     -0.59736587
S       2.37204746     -0.72520531     -0.90206818
O       2.73484335     -2.07182615     -0.51216695
O       2.63511785     -0.23180325     -2.23672468
N       3.09628511      0.34536881      0.22240711
C       2.89340354     -0.01133368      1.64500886
C       4.52545043      0.60261175     -0.07078196
C       0.05793830      0.73801150     -0.86425652
C      -1.30987930      0.92446079     -0.63059860
H      -5.11593487      1.50510377      0.28703213
H      -3.50204158      2.13771301      0.61739489
H      -4.01552467      1.77468184     -1.06942678
H      -4.00011039     -1.90925805      0.43412855
H      -2.04778470     -2.19967782      0.52128021
H       0.30692018     -2.51937812      0.09469495
H       3.41472701     -0.93925722      1.89829578
H       1.83062326     -0.11277088      1.87799442
H       3.28220645      0.78913536      2.28325137
H       4.92518575      1.33679726      0.63637916
H       5.11451630     -0.31590645      0.01075802
H       4.64134871      1.02751561     -1.07197458
H       0.65956917      1.55611515     -1.25567031
H      -1.71526481      1.90532652     -0.86331475
