65
CCCCCCCC/C=C/CCCCCCCC(=O)O.NCCO
C      -7.51781886      1.33021026     -1.45093803
C      -6.97440520      2.07184825     -0.23944457
C      -5.46305034      1.91820276     -0.05567100
C      -5.03433612      0.48493127      0.27025675
C      -3.52986865      0.40774414      0.54215665
C      -3.05856409     -0.98279339      0.97924293
C      -3.31528465     -2.12297428     -0.01544831
C      -2.73452147     -1.92147833     -1.42134815
C      -1.23778688     -1.86183641     -1.57706226
C      -0.30873792     -2.25676015     -0.69221304
C       1.17142890     -2.16218696     -0.93616638
C       1.83827073     -1.22573903      0.07339543
C       3.34763521     -1.14067582     -0.16154376
C       4.01534934     -0.20117589      0.84403981
C       5.52540614     -0.11953772      0.61137547
C       6.19167364      0.82381122      1.61783840
C       7.70634566      0.90365229      1.43010714
C       8.10634803      1.67808510      0.20225374
O       7.40287485      2.39330821     -0.48942953
O       9.41595410      1.52857955     -0.08005650
N      -1.51264971     -0.07919951      0.66848856
C      -0.50611527     -0.37383234     -0.35017782
C       0.86395542      0.20499167      0.00853522
O       1.78320769     -0.05543544     -1.04709655
H      -6.99037109      1.62708680     -2.36292545
H      -8.58025789      1.55814216     -1.58476279
H      -7.42485010      0.24666616     -1.33356244
H      -7.20311895      3.13823288     -0.35340609
H      -7.49678865      1.73061094      0.66186560
H      -5.14913900      2.58108490      0.76019604
H      -4.94563314      2.26267188     -0.95943116
H      -5.58491054      0.12724132      1.14844734
H      -5.28985776     -0.17206229     -0.56699859
H      -2.97303926      0.73305626     -0.34400888
H      -3.27433521      1.11599867      1.34056660
H      -1.98863553     -0.92451917      1.20759891
H      -3.55212579     -1.23949160      1.92529696
H      -2.93020257     -3.05695375      0.41240189
H      -4.39788264     -2.27215734     -0.11065965
H      -3.09286191     -2.73981620     -2.05902189
H      -3.15512695     -1.00607614     -1.85366222
H      -0.90375485     -1.45767214     -2.53243641
H      -0.60394309     -2.68825166      0.26080652
H       1.60137749     -3.16747051     -0.85261172
H       1.37645001     -1.81243944     -1.95528241
H       1.39798324     -0.22349048     -0.00460566
H       1.64658810     -1.58111556      1.09388351
H       3.78893444     -2.14134972     -0.07872303
H       3.54138550     -0.78490489     -1.18081162
H       3.81925543     -0.55473905      1.86358984
H       3.57591469      0.80012919      0.75858091
H       5.96414701     -1.12070876      0.70191048
H       5.71706881      0.22468658     -0.41139507
H       5.98706691      0.46086570      2.63260369
H       5.74725988      1.82350042      1.54034418
H       8.12823307     -0.10555959      1.36873810
H       8.14800473      1.41392368      2.29337537
H       9.55025322      2.08280631     -0.87724568
H      -1.67840313      0.92635311      0.69817500
H      -2.39792114     -0.49946924      0.38606223
H      -0.41930207     -1.45922533     -0.47467043
H      -0.83390862      0.02076253     -1.31891182
H       0.80408061      1.28929099      0.14971187
H       1.24851141     -0.25111847      0.92691572
H       2.64854481      0.27688204     -0.75236381
