21
O=[N+]([O-])N1CN([N+](=O)[O-])CN([N+](=O)[O-])C1
O      -0.79650970     -3.37433880     -0.04015429
N      -1.36753289     -2.35705258      0.35554326
O      -2.32443295     -2.31135032      1.12999055
N      -0.89075182     -1.14888203     -0.11942919
C      -1.17210938     -0.01931870      0.76291746
N      -0.74546246      1.24294194      0.16435086
N      -1.08129915      2.35510469      0.91461997
O      -2.04768436      2.24465761      1.67054081
O      -0.38738298      3.36097021      0.75896030
C       0.65733155      1.21071687     -0.24153161
N       0.93145939      0.07629178     -1.11990762
N       2.22242306      0.05667471     -1.61551151
O       2.67448199     -1.04059651     -1.94589575
O       2.80686224      1.13870426     -1.68733021
C       0.51146660     -1.19059761     -0.52643637
H      -0.69464923     -0.16468711      1.74369934
H      -2.25840557      0.02836131      0.91720780
H       0.87008500      2.13182011     -0.80048049
H       1.31588519      1.18710848      0.63982135
H       0.62064501     -1.97462033     -1.28769004
H       1.15558047     -1.45190799      0.32671535
