41
CCOc1nc(F)cc2nc(S(=O)(=O)Nc3c(Cl)cccc3C(=O)OC)nn12
C       2.25771408      3.16859801      0.24231883
C       2.68353499      2.10966864     -0.75587520
O       1.91862037      0.92504233     -0.49708402
C       2.14871981     -0.12262669     -1.32885794
N       2.98875458     -0.13652989     -2.32016100
C       3.04280892     -1.31576299     -3.03895902
F       3.91623147     -1.35634907     -4.06777934
C       2.29966945     -2.41138813     -2.80182706
C       1.38207788     -2.37846593     -1.73082447
N       0.50616916     -3.22620035     -1.24778098
C      -0.06437886     -2.52535104     -0.18970909
S      -1.35762722     -3.20433542      0.83168098
O      -1.92668175     -4.26697018      0.02778788
O      -0.69031388     -3.46590561      2.08986037
N      -2.59904077     -2.03460046      1.03701740
C      -2.29268020     -0.91427682      1.90469693
C      -2.34430458     -1.07158873      3.30363941
Cl     -2.97614043     -2.50317516      4.04537422
C      -1.96301754     -0.02985576      4.15484346
C      -1.54130675      1.18718821      3.62755483
C      -1.52594202      1.37642847      2.24624856
C      -1.90866459      0.33883959      1.37642502
C      -1.95481447      0.57287599     -0.09518290
O      -2.42076660     -0.23930808     -0.88349387
O      -1.42120890      1.77455493     -0.42505599
C      -1.41761785      2.04998496     -1.82655820
N       0.44426419     -1.28619424     -0.00319817
N       1.34582824     -1.21761539     -1.00507321
H       2.81613374      4.09623733      0.08939733
H       1.18752262      3.38011609      0.14691378
H       2.42250571      2.82065090      1.26746125
H       3.75050490      1.89249751     -0.63565976
H       2.48771792      2.46244888     -1.77449641
H       2.39319002     -3.30118590     -3.41202558
H      -2.90116183     -1.74144317      0.09626062
H      -2.00373403     -0.16228574      5.23399378
H      -1.24405021      1.99478096      4.29320352
H      -1.21679572      2.34588462      1.86051828
H      -2.44152505      2.09149509     -2.21059684
H      -0.94913782      3.02627950     -1.97825467
H      -0.83105697      1.29784272     -2.36361308
