29
OC(c1ccc(Cl)cc1)(c1ccc(Cl)cc1)C(Cl)(Cl)Cl
O      -0.22285287     -0.70356390     -2.16394842
C      -0.27370875      0.29983180     -1.10138304
C      -1.28348498     -0.21787692     -0.04156960
C      -1.25992055      0.26380682      1.28304341
C      -2.17534263     -0.19587804      2.23509987
C      -3.12861123     -1.14474893      1.88008216
Cl     -4.25318073     -1.70940871      3.05235099
C      -3.17364066     -1.63948293      0.58128352
C      -2.25815282     -1.18076307     -0.37069342
C       1.16751336      0.25739158     -0.51920032
C       1.97998496      1.38315350     -0.30774377
C       3.26757688      1.25662854      0.23224969
C       3.76625798      0.00428756      0.57458839
Cl      5.34589915     -0.13889405      1.23730848
C       2.98833334     -1.12905114      0.38274980
C       1.70533914     -1.00224459     -0.15650647
C      -0.79541713      1.66389371     -1.76477653
Cl     -2.41754630      1.45673806     -2.56786512
Cl     -0.97651435      3.04305626     -0.61627888
Cl      0.31758739      2.19640647     -3.10402093
H       0.55970855     -0.50322100     -2.71027132
H      -0.52291383      1.00005133      1.60024407
H      -2.13593665      0.18990330      3.25067478
H      -3.91618391     -2.38142358      0.29919705
H      -2.31788003     -1.58702121     -1.38000173
H       1.65983089      2.39211369     -0.54718608
H       3.87544269      2.14608329      0.38342991
H       3.36665759     -2.11215992      0.65053565
H       1.11115548     -1.90760793     -0.29139212
