50
C[Si]1(C)O[Si](C)(C)O[Si](C)(C)O[Si](C)(C)O[Si](C)(C)O1
C      -3.22842536     -2.78621720     -0.57776191
Si     -1.92326899     -1.60375833      0.08912044
C      -1.66126913     -2.03394357      1.89913040
O      -0.52444200     -1.77070923     -0.79975955
Si      1.07026517     -2.22358664     -0.63570793
C       1.96080682     -2.05866011     -2.28092858
C       1.18693254     -4.02699662     -0.11567706
O       1.76445043     -1.25719313      0.52742093
Si      2.52966626      0.20988455      0.71868058
C       2.26041193      0.84759587      2.46497209
C       4.38314080     -0.01049802      0.47713680
O       1.95222130      1.29244166     -0.40603272
Si      0.58666835      2.16632695     -0.79252481
C       0.00793632      1.71455839     -2.52023272
C       0.99501194      4.00292279     -0.79965153
O      -0.57702217      1.86178851      0.35703808
Si     -2.19212290      1.49713163      0.51632824
C      -2.68359523      1.59329132      2.32913681
C      -3.25059431      2.74097379     -0.41338972
O      -2.46197459     -0.03467405     -0.07898586
H      -3.42949149     -2.57805502     -1.63265766
H      -2.88860008     -3.82221867     -0.48900654
H      -4.16359593     -2.67969701     -0.02039472
H      -2.58339715     -1.87842947      2.46708121
H      -1.36734545     -3.08173207      2.00987729
H      -0.87851334     -1.41005677      2.34046985
H       1.50512941     -2.71238087     -3.03050683
H       1.91046722     -1.03047787     -2.65041961
H       3.01419616     -2.33587882     -2.17920525
H       2.23348763     -4.33533465     -0.03535172
H       0.69335602     -4.67143969     -0.84899436
H       0.70951270     -4.18225347      0.85594594
H       2.73842074      1.82255227      2.59778276
H       2.68506246      0.15390519      3.19659080
H       1.19284479      0.95572940      2.67786443
H       4.78246805     -0.72698857      1.20084773
H       4.90360450      0.94231437      0.61076743
H       4.59708684     -0.38159443     -0.52944510
H       0.81018315      1.87755804     -3.24610854
H      -0.28815931      0.66332186     -2.57194659
H      -0.84819318      2.32703535     -2.81719796
H       1.35328302      4.31899620      0.18443021
H       1.77366199      4.22094299     -1.53635178
H       0.10816263      4.59274066     -1.04929072
H      -2.55808030      2.61260592      2.70604302
H      -2.06275741      0.92713511      2.93486827
H      -3.73032070      1.30386570      2.46018771
H      -4.31306133      2.52498361     -0.26722552
H      -3.04011958      2.70569196     -1.48600523
H      -3.05408927      3.75648019     -0.05717391
