26
O=C(O)CCC(=O)OOC(=O)CCC(=O)O
O       5.33907810     -0.69837381     -0.24938633
C       4.67214969     -0.66415158     -1.26951609
O       5.15032077     -1.17087254     -2.42286892
C       3.30178775     -0.07777286     -1.43580874
C       2.70547757      0.29687109     -0.08445966
C       1.32071031      0.86546295     -0.24352868
O       0.82454169      1.22540963     -1.30372151
O       0.71327186      0.93196349      0.98194057
O      -0.63395789      1.46842606      0.76301520
C      -1.47095639      0.39548497      0.59943900
O      -1.14126594     -0.78248654      0.66162457
C      -2.85797952      0.89388446      0.27295894
C      -3.88196899     -0.23725414      0.29237583
C      -4.13355192     -0.71572739      1.69697481
O      -3.73960719     -0.19792555      2.72991147
O      -4.91083384     -1.81669427      1.72703358
H       6.03961147     -1.51047114     -2.18851302
H       3.38088458      0.80554247     -2.08000995
H       2.66285356     -0.81727284     -1.93399339
H       2.65150034     -0.59216452      0.55417313
H       3.32741045      1.04746483      0.41629409
H      -3.13257560      1.67508469      0.99130884
H      -2.82235490      1.33472158     -0.73088925
H      -3.54155611     -1.08285250     -0.31599603
H      -4.83261706      0.12967316     -0.11028178
H      -4.99037282     -2.02645731      2.68192331
