38
O=C(NC(=O)c1ccccc1)C1=CC=CCC1=Cc1ccco1
O       1.59319352      1.40345945      1.04353361
C       0.78173813      1.11742960      0.17126662
N       1.04857682      0.37446079     -0.96235194
C       1.73782478     -0.80825370     -0.83631820
O       1.17345319     -1.86862833     -1.09768868
C       3.16256518     -0.78848126     -0.40283727
C       3.72208923     -1.97218745      0.09710424
C       5.06369644     -2.00906428      0.48184221
C       5.85460115     -0.86751153      0.36030809
C       5.30828615      0.30983703     -0.14989322
C       3.96670893      0.35001357     -0.53762491
C      -0.59453667      1.71070083      0.17247631
C      -0.60889042      3.05566802      0.13527494
C      -1.83685096      3.80299893      0.06712266
C      -3.00470641      3.16481827     -0.07026669
C      -3.12003119      1.66364940     -0.12241458
C      -1.82615204      0.90097682      0.16036138
C      -1.79583451     -0.42263399      0.43434148
C      -2.92454421     -1.29438663      0.40320124
C      -2.98352967     -2.62192479      0.81851486
C      -4.29471249     -3.09966328      0.58753623
C      -4.97941636     -2.04993742      0.03435531
O      -4.17136471     -0.97017006     -0.08529711
H       0.20394232      0.19362694     -1.49196823
H       3.11445749     -2.87001979      0.18898273
H       5.49065999     -2.92817372      0.87503015
H       6.89850711     -0.89513130      0.66292505
H       5.92636704      1.19928085     -0.24381635
H       3.56298225      1.27654238     -0.93593174
H       0.31375802      3.63242556      0.14867310
H      -1.78722878      4.88692249      0.10756542
H      -3.92674957      3.73475045     -0.14353061
H      -3.87809286      1.38766079      0.62049986
H      -3.49141519      1.39008904     -1.11745779
H      -0.86045694     -0.90736705      0.70345393
H      -2.15859304     -3.17990735      1.24147603
H      -4.68658195     -4.08525787      0.79438641
H      -5.99371980     -1.91661143     -0.31470052
