17
COC(=O)CC(=O)OC
C      -3.23058233     -0.22071365     -0.83428165
O      -2.32612016     -0.12115967      0.26753661
C      -1.01820329     -0.32943067     -0.06566360
O      -0.61913557     -0.58416192     -1.19249774
C      -0.17024953     -0.21343975      1.16006363
C       1.29142493     -0.31093285      0.86511126
O       1.98556031     -1.27777386      1.15240918
O       1.74129351      0.83060083      0.27366312
C       3.12802251      0.80049470     -0.06721942
H      -2.99744676      0.53508949     -1.59078592
H      -3.19901032     -1.22596458     -1.26595215
H      -4.24134999     -0.03599669     -0.46020442
H      -0.43522815     -1.02238978      1.84942339
H      -0.36141882      0.74113449      1.66175525
H       3.33535935     -0.01891254     -0.76267288
H       3.37596861      1.74417273     -0.56088786
H       3.74111570      0.70938371      0.83477773
