35
CCOP(=S)(OCC)Oc1nc(Cl)n(C(C)C)n1
C      -3.56768115     -2.23865740      1.61274108
C      -3.36899004     -1.64619285      0.23279796
O      -2.11071174     -0.99397476      0.20063123
P      -1.82261412      0.06674924     -0.99085629
S      -2.12396663     -0.52141559     -2.81611765
O      -2.79162900      1.29485060     -0.54997990
C      -2.56408935      1.93974458      0.69209033
C      -3.79307854      2.75185277      1.04495615
O      -0.36960841      0.65238476     -0.62268685
C       0.71918516     -0.11205556     -0.60640088
N       0.79544010     -1.45121292     -0.82135333
C       2.07793878     -1.67624001     -0.69066589
Cl      2.84939164     -3.17956641     -0.84315295
N       2.74610158     -0.52446815     -0.40060971
C       4.16591625     -0.29766257     -0.17522065
C       4.75134495      0.65073846     -1.22179227
C       4.43021564      0.21076485      1.24223944
N       1.86978547      0.50606254     -0.32920728
H      -2.76457847     -2.94451712      1.84885732
H      -3.53701752     -1.45424356      2.37625289
H      -4.52683172     -2.75944205      1.67993548
H      -4.17112307     -0.93426237      0.01394955
H      -3.38134905     -2.44020003     -0.51972856
H      -2.36819717      1.20276812      1.47665350
H      -1.69456724      2.59757425      0.59910514
H      -4.00768815      3.48732237      0.26265410
H      -3.65527750      3.27629632      1.99461461
H      -4.67229980      2.10397011      1.12345023
H       4.67499680     -1.26095175     -0.28101305
H       5.83417412      0.74919765     -1.09150331
H       4.56550472      0.27639611     -2.23457638
H       4.31187687      1.65189895     -1.15166158
H       3.97747128      1.19417166      1.41006926
H       5.50597078      0.30022976      1.42671716
H       4.01598454     -0.47790997      1.98693838
