25
CCOC(=O)CNC(=O)OCC
C      -4.73636035     -0.85341065      0.13994474
C      -4.20868972      0.50632394     -0.27756207
O      -2.93706468      0.36544282     -0.92832027
C      -1.84916026      0.34832409     -0.10812028
O      -1.87770731      0.43600097      1.11403435
C      -0.58073511      0.19939359     -0.93096400
N       0.58418645      0.18108675     -0.07217763
C       1.84261175      0.05858854     -0.56198424
O       2.12561055     -0.04492525     -1.74559896
O       2.72552131      0.06937459      0.46398851
C       4.09404919     -0.05478114      0.06029050
C       4.95934357     -0.02726283      1.30518110
H      -4.07000483     -1.32709156      0.86773373
H      -5.73149762     -0.76342201      0.58452933
H      -4.79418909     -1.52485198     -0.72304808
H      -4.14600817      1.19193385      0.57527025
H      -4.89133183      0.95881409     -1.00428029
H      -0.48693973      1.04396897     -1.62022820
H      -0.61172049     -0.74137157     -1.48883138
H       0.47104130      0.25802376      0.93235570
H       4.23929578     -1.00287446     -0.46970165
H       4.36390820      0.78048429     -0.59574067
H       4.81013489      0.90626149      1.85778803
H       4.68779632     -0.84453137      1.98152393
H       6.01790989     -0.11949892      1.04670517
