53
O=C(NCc1ccc(OC(F)(F)F)cc1)C1c2ccccc2C(=O)N1CCc1cccnc1
O       1.50114548     -2.99803350     -0.36208524
C       0.53299303     -2.40740893      0.11343983
N       0.48787656     -1.96496831      1.42144672
C       1.68670318     -1.80681294      2.20876176
C       2.27403129     -0.43901212      1.96865105
C       3.22788779     -0.24266691      0.96282041
C       3.72585306      1.03549597      0.68514132
C       3.27713085      2.13701461      1.41092357
O       3.66655159      3.43525320      1.24382758
C       4.62769550      3.70813291      0.23868298
F       4.18142922      3.34656812     -0.98289537
F       5.79139727      3.07152151      0.49806545
F       4.87714750      5.03668718      0.22221855
C       2.32778488      1.94355605      2.41798372
C       1.82323141      0.66953755      2.69248203
C      -0.76835154     -2.18642238     -0.68330068
C      -1.69055569     -3.36772702     -0.60418826
C      -1.48194236     -4.68121751     -0.99255856
C      -2.52723393     -5.59532405     -0.81739451
C      -3.75781276     -5.19250438     -0.26382629
C      -3.96421614     -3.86692512      0.12312033
C      -2.91700054     -2.98372316     -0.05849057
C      -2.86764948     -1.54643157      0.22782713
O      -3.78956359     -0.88677746      0.66180461
N      -1.59901053     -1.11049922     -0.11718874
C      -1.24616107      0.29740411     -0.23430184
C      -1.66221458      0.89541182     -1.58212741
C      -1.33648024      2.36070590     -1.65724033
C      -2.28327881      3.32847554     -1.31694222
C      -1.94231904      4.67526782     -1.37931943
C      -0.66001951      5.01170363     -1.77627945
N       0.28506290      4.10629934     -2.10110308
C      -0.07142811      2.80491469     -2.03258570
H      -0.32404170     -1.41315255      1.68487119
H       1.41359450     -1.92452172      3.26255549
H       2.41239377     -2.59060549      1.96372114
H       3.57793189     -1.08928337      0.37440353
H       4.45965570      1.12399648     -0.11117990
H       1.96835330      2.79402099      2.99151385
H       1.07102382      0.55351247      3.47130466
H      -0.53431261     -1.93527726     -1.72294295
H      -0.53346314     -5.00135561     -1.42034782
H      -2.38793319     -6.63356661     -1.11612724
H      -4.55493247     -5.92199138     -0.14077505
H      -4.90796223     -3.53732794      0.54464330
H      -0.16754536      0.40137482     -0.07406640
H      -1.75131168      0.83479057      0.57736313
H      -2.73723119      0.74612928     -1.75057349
H      -1.16059009      0.36881675     -2.40359753
H      -3.28374153      3.03784392     -1.00207412
H      -2.65847696      5.44367490     -1.12481286
H      -0.35083287      6.04927797     -1.84476812
H       0.72073839      2.10614844     -2.29448018
