27
N#Cc1c(N)nc2nc(C3CC3)ncc2c1N
N      -5.44470945     -0.65119744      1.00404095
C      -4.31655021     -0.41266029      0.86582811
C      -2.91930958     -0.16580095      0.68209251
C      -2.35563119      1.02650826      1.12442887
N      -3.10352204      2.04836048      1.70770863
N      -1.04997496      1.31074449      0.97792251
C      -0.22555321      0.41865841      0.43314115
N       1.05636626      0.75289584      0.37146172
C       1.93970874     -0.11600282     -0.14598256
C       3.39280678      0.28326957     -0.20808745
C       3.79868412      1.57791876     -0.87693634
C       4.12963567      0.26918058     -1.52910631
N       1.58825587     -1.33023872     -0.59638806
C       0.28471358     -1.64768282     -0.52598809
C      -0.70150423     -0.80525976     -0.03014650
C      -2.09236416     -1.09734564      0.03598096
N      -2.57957109     -2.37037545     -0.34479565
H      -3.66450184      1.74572113      2.49765497
H      -2.45905993      2.79326339      1.96971010
H       3.97145202     -0.00383893      0.66515773
H       4.60445795      2.14508471     -0.42591531
H       3.02432219      2.19127754     -1.32479500
H       5.16258350     -0.05837535     -1.52490944
H       3.58138540     -0.00778721     -2.42277574
H       0.05689940     -2.64400673     -0.89157443
H      -3.58879674     -2.43614900     -0.47898337
H      -2.09022284     -2.81616207     -1.11575432
