17
Cc1cccnc1C
C      -1.33675194     -1.36686706     -0.56473710
C      -0.12730135     -0.56446099     -0.18760434
C       1.14433484     -1.14746753     -0.23070158
C       2.26341859     -0.40128553      0.11940176
C       2.07524355      0.91225158      0.50395437
N       0.86748773      1.51153976      0.55892746
C      -0.21875819      0.77419527      0.21507266
C      -1.54017061      1.48329927      0.29167804
H      -2.02903737     -1.43360750      0.28047310
H      -1.84655097     -0.90999234     -1.41882395
H      -1.06676659     -2.38909232     -0.85072668
H       1.26921788     -2.18318071     -0.53644086
H       3.25666258     -0.83400797      0.09271869
H       2.91541349      1.53918391      0.78736110
H      -2.01841799      1.50750444     -0.69222119
H      -1.40715451      2.51803574      0.62480268
H      -2.20086914      0.98395196      1.00686585
