42
CCCCc1ccc2cc3ccc4ccccc4c3cc2c1
C       6.60881687      0.00273297     -1.27136149
C       5.78278255     -0.82509548     -0.29984029
C       4.41803607     -0.18752374     -0.04036205
C       3.59161907     -1.02519196      0.93780113
C       2.24267758     -0.40419993      1.20108202
C       2.07099343      0.50340136      2.24944328
C       0.82401549      1.08854015      2.47815039
C      -0.27523525      0.78190790      1.66012079
C      -1.53418376      1.35927520      1.87368462
C      -2.63541833      1.05532938      1.05440113
C      -3.86904778      1.65946182      1.31145215
C      -4.97980898      1.38153153      0.52032235
C      -4.88977476      0.49093138     -0.55171496
C      -6.03013724      0.23181299     -1.33136792
C      -5.98007256     -0.64939779     -2.40776423
C      -4.78640422     -1.28249739     -2.71689664
C      -3.64510886     -1.03268747     -1.94844367
C      -3.65428590     -0.14230521     -0.84424610
C      -2.50406030      0.14647667     -0.02371572
C      -1.21980461     -0.42457391     -0.21924349
C      -0.11383938     -0.12399317      0.59875808
C       1.14747947     -0.70674414      0.37921779
H       6.10160332      0.09617847     -2.23693890
H       7.58032626     -0.47138903     -1.44247386
H       6.78630729      1.00851689     -0.87736880
H       6.33197008     -0.92622780      0.64347828
H       5.65093654     -1.83360991     -0.70874457
H       4.55608692      0.82488279      0.36011369
H       3.87702296     -0.08006880     -0.98912312
H       3.45384432     -2.04050348      0.54467701
H       4.13102491     -1.14047125      1.88656649
H       2.90659162      0.76277356      2.89545502
H       0.71715934      1.79016842      3.30235588
H      -1.65863494      2.06148299      2.69656807
H      -3.98130273      2.35924598      2.13708622
H      -5.92192856      1.87295499      0.75403670
H      -6.97546485      0.72003907     -1.10291369
H      -6.87064809     -0.83879225     -3.00050382
H      -4.73558965     -1.97250664     -3.55507062
H      -2.73718872     -1.55538986     -2.23477065
H      -1.06188688     -1.12853294     -1.03171176
H       1.28053224     -1.40594235     -0.44440345
