15
NCC(O)CO
N      -2.37205924      0.11149000      0.37622799
C      -1.11872330     -0.61105496      0.13238495
C       0.08661243      0.33615450      0.22166767
O      -0.02789733      1.34277541     -0.80025765
C       1.40464008     -0.41416169      0.01599434
O       2.47788806      0.53004293      0.06657608
H      -3.15150499     -0.42829188      0.00490349
H      -2.33389502      0.97235919     -0.17867057
H      -1.02739313     -1.42493894      0.85851673
H      -1.16828593     -1.04770995     -0.87182326
H       0.10204308      0.85981301      1.18496548
H       0.83404256      1.80515950     -0.77996041
H       1.55858193     -1.16645171      0.79539730
H       1.43394437     -0.89190803     -0.96867261
H       3.30200643      0.02672264     -0.05724952
