63
CCCCC(=O)OC1CCC2(C)C(=CCC3C4CCC(=O)C4(C)CCC32)C1
C       7.89189751     -2.19082559     -0.90012847
C       7.16452172     -0.86227239     -0.76298503
C       6.68539111     -0.63285724      0.67296288
C       5.98668535      0.71312430      0.84486646
C       4.66288551      0.76875765      0.12538285
O       4.45628462      1.43817181     -0.87709700
O       3.74936608     -0.02312082      0.74984855
C       2.44004599     -0.07057087      0.14904246
C       1.77414044     -1.36148747      0.62757744
C       0.33368081     -1.47066127      0.12753960
C      -0.57051025     -0.25779584      0.50156574
C      -0.84602969     -0.25680494      2.02339070
C       0.16921155      1.03935522      0.14142963
C      -0.40877971      2.04341199     -0.54369580
C      -1.84031923      2.06172056     -0.98659333
C      -2.69286780      0.97901228     -0.30584611
C      -4.08013591      0.79595668     -0.96736814
C      -4.94141572      2.06734053     -1.00753788
C      -5.60658524      2.15232873      0.35650762
C      -5.79307232      0.69934464      0.70121976
O      -6.52846488      0.31201111      1.60217005
C      -4.95040564     -0.22240640     -0.17600490
C      -5.88638046     -0.99773983     -1.11003714
C      -4.11963268     -1.16854652      0.70527938
C      -2.80965586     -1.57105523      0.03699726
C      -1.91312926     -0.36383542     -0.32116965
C       1.61492153      1.14696124      0.57782680
H       7.23728528     -3.02577385     -0.63048252
H       8.77475615     -2.22307151     -0.25355880
H       8.22166814     -2.33727410     -1.93367246
H       6.31353325     -0.85178560     -1.45332335
H       7.83785493     -0.05085336     -1.06444865
H       6.01508827     -1.44882770      0.97059126
H       7.54852994     -0.66517094      1.34879980
H       5.80436398      0.91880897      1.90606956
H       6.61855684      1.52833039      0.47383479
H       2.53065654     -0.11069111     -0.94469065
H       2.35423642     -2.22225023      0.27141601
H       1.80928295     -1.42353668      1.72235353
H       0.36640198     -1.58021569     -0.96530687
H      -0.09211173     -2.40327802      0.51562722
H       0.07386964     -0.16582626      2.61031323
H      -1.33123836     -1.18186066      2.34989469
H      -1.48957573      0.57768794      2.32054643
H       0.17263731      2.92828566     -0.79923564
H      -1.86977536      1.94900184     -2.07687970
H      -2.24969860      3.05038960     -0.75132745
H      -2.84882100      1.29343951      0.73427782
H      -3.91777163      0.44796095     -1.99670452
H      -5.71356516      1.95685833     -1.77998862
H      -4.38849394      2.97814421     -1.24840058
H      -6.56464605      2.67405794      0.30913365
H      -4.95007838      2.61523025      1.09846106
H      -6.55661494     -1.65243315     -0.54097151
H      -6.52277917     -0.32638820     -1.69750431
H      -5.31977596     -1.62122412     -1.80979019
H      -4.69700154     -2.07005216      0.94640184
H      -3.89466234     -0.69973236      1.67241067
H      -3.04570846     -2.11264721     -0.88891568
H      -2.29181479     -2.29825881      0.66858232
H      -1.61661529     -0.53305861     -1.36954751
H       2.07999668      2.05855308      0.18252049
H       1.66038258      1.25994477      1.66853535
