12
CNC(C)=O
C       1.83226929     -0.20035572      0.39255834
N       0.55440759      0.35396448      0.02306538
C      -0.58593357     -0.41615232      0.05949846
C      -1.81579006      0.28207015     -0.45586373
O      -0.61497317     -1.57500434      0.45979253
H       2.20605906     -0.80225815     -0.43995844
H       1.73192412     -0.82981470      1.28086778
H       2.52272033      0.62184190      0.59397362
H       0.54267242      1.21536552     -0.50674630
H      -1.66807249      1.36376050     -0.51963397
H      -2.64811696      0.09129356      0.22729838
H      -2.05716656     -0.10471088     -1.44929618
