45
COc1ccc2c(c1)c(CC(=O)O)c(C)n2C(=O)/C=C/c1ccccc1
C      -4.33251950      3.42545550     -1.39470989
O      -2.92816494      3.54446799     -1.20596478
C      -2.29413857      2.49624704     -0.59613851
C      -0.91592014      2.63756879     -0.48642865
C      -0.12487927      1.64628152      0.10305717
C      -0.74523315      0.47172618      0.57529752
C      -2.13570566      0.34085109      0.53691307
C      -2.91082702      1.35576291     -0.07692423
C      -2.47888032     -0.86657236      1.21387010
C      -3.87230982     -1.37646339      1.44349536
C      -4.36107835     -2.27112024      0.32857973
O      -3.76853937     -2.63369396     -0.67354442
O      -5.63078530     -2.68533990      0.54091688
C      -1.29360612     -1.45130079      1.63620819
C      -1.09604801     -2.72898991      2.38801118
N      -0.21954731     -0.68626818      1.16808660
C       1.14732862     -1.03461232      1.30589117
O       1.51684961     -1.73444606      2.24113977
C       2.04607313     -0.59042132      0.21276893
C       3.37385410     -0.60768764      0.40578486
C       4.36087238     -0.22781378     -0.61480415
C       5.60817057     -0.86673239     -0.61362555
C       6.58777911     -0.52139000     -1.54811416
C       6.33471093      0.47502673     -2.48764543
C       5.10499143      1.12938245     -2.49006435
C       4.12460577      0.78389683     -1.55560275
H      -4.85662502      3.38744579     -0.43410124
H      -4.67530516      4.31900607     -1.92527210
H      -4.57698497      2.55611892     -2.01417803
H      -0.44137491      3.54154224     -0.86325551
H       0.94342363      1.81458848      0.19571369
H      -3.98622535      1.23048652     -0.11341457
H      -3.91816175     -1.93827580      2.38257645
H      -4.56407968     -0.53077001      1.52967724
H      -5.81952774     -3.25598893     -0.23424723
H      -2.04123483     -3.26192128      2.52782270
H      -0.68161351     -2.53057220      3.38131016
H      -0.42865629     -3.40542486      1.84452366
H       1.60315306     -0.31421118     -0.73602579
H       3.78271118     -0.94069990      1.35923152
H       5.82705168     -1.64802267      0.11146937
H       7.54801759     -1.03067023     -1.54026178
H       7.09682368      0.74464728     -3.21417425
H       4.90908687      1.91367589     -3.21685131
H       3.18246876      1.32523111     -1.57097343
