14
Cc1nc(Br)[nH]c1[N+](=O)[O-]
C      -1.75796001     -1.02416593     -0.20557768
C      -0.34202223     -0.60661163     -0.09487457
N       0.67495805     -1.53904344     -0.18138147
C       1.79629473     -0.86432125     -0.04736204
Br      3.53013782     -1.64654673     -0.08606546
N       1.56098194      0.46982765      0.12332265
C       0.20678568      0.63890305      0.09402391
N      -0.36893886      1.92323037      0.24490686
O       0.42488322      2.85973272      0.40159759
O      -1.59985237      2.00270535      0.20827855
H      -2.30743303     -0.76930995      0.70579206
H      -1.83460656     -2.10590236     -0.35425446
H      -2.23968316     -0.53197020     -1.05596177
H       2.25645478      1.19347234      0.24755583
