55
CC(=O)CCCC(C)CCCC(C)CCCC(C)C
C       8.01646321      1.46953732     -1.28708531
C       6.90144934      1.02737120     -0.37535356
O       6.57239487      1.70553020      0.59648836
C       6.24945258     -0.30320809     -0.71358764
C       4.98793888     -0.59732018      0.09992390
C       3.79306117      0.24869710     -0.36029055
C       2.48217781      0.03075121      0.42950660
C       2.64045630      0.42913183      1.89898653
C       1.95399979     -1.40945561      0.27141391
C       0.57528662     -1.68254235      0.88968973
C      -0.54240638     -0.82164218      0.29158002
C      -1.96068039     -1.27381220      0.70720975
C      -2.17507420     -1.13593071      2.21772128
C      -3.00303526     -0.45865218     -0.09117166
C      -4.44300912     -0.94445900      0.10562421
C      -5.43824893     -0.30495814     -0.87139600
C      -5.54671696      1.23037466     -0.80874436
C      -6.55076589      1.71967973     -1.85640898
C      -5.96012157      1.73064302      0.57571629
H       7.63365507      1.58720165     -2.30372676
H       8.41288326      2.43001864     -0.94643382
H       8.81940094      0.72862475     -1.26900210
H       6.01911525     -0.31964438     -1.78439810
H       6.99407278     -1.08199433     -0.51290843
H       5.18706805     -0.43470068      1.16449125
H       4.74918979     -1.65920971     -0.02504315
H       4.05459629      1.31253559     -0.30335530
H       3.59989043      0.04161013     -1.42095970
H       1.75064628      0.71646060     -0.01629423
H       1.66594870      0.50179004      2.39236317
H       3.24160403     -0.29856916      2.45327248
H       3.12152456      1.40900795      1.98816366
H       2.66150820     -2.11317763      0.72628229
H       1.91173322     -1.65966233     -0.79638350
H       0.33780424     -2.74112659      0.72560835
H       0.62817692     -1.54144620      1.97395231
H      -0.40013573      0.22630727      0.58133922
H      -0.46472181     -0.86217478     -0.80238822
H      -2.07521223     -2.33229937      0.43966083
H      -3.16849122     -1.48494284      2.51432463
H      -2.07097559     -0.09381224      2.53785651
H      -1.45545496     -1.73780690      2.78042695
H      -2.92531541      0.59857179      0.18967027
H      -2.75860954     -0.52182874     -1.15932607
H      -4.77272451     -0.76080169      1.13311553
H      -4.47764101     -2.03119957     -0.04139344
H      -6.42682501     -0.74465277     -0.68482252
H      -5.16081718     -0.60055155     -1.89167724
H      -4.57417772      1.67090142     -1.05807535
H      -7.55356850      1.32411014     -1.66207121
H      -6.24988938      1.40404447     -2.86098307
H      -6.61225222      2.81309115     -1.85566444
H      -5.19587006      1.50494094      1.32558699
H      -6.90150067      1.27324569      0.89834647
H      -6.09725717      2.81740359      0.57080931
