37
CC(COC(=O)c1ccccc1)OC(=O)c1ccccc1
C      -0.77776635     -3.47874471      2.23104154
C      -0.47321887     -2.46547983      1.13490865
C       1.02099892     -2.12244748      1.11344422
O       1.29337825     -1.29348952     -0.02652282
C       2.57584387     -0.87342709     -0.13053716
O       3.48025785     -1.15198180      0.64091840
C       2.74405589     -0.00618819     -1.32820070
C       1.68826738      0.27677542     -2.20627369
C       1.90011295      1.09881615     -3.31576482
C       3.16272239      1.64079591     -3.55421872
C       4.21762745      1.36331498     -2.68575194
C       4.01022886      0.54212328     -1.57552652
O      -1.23005867     -1.27397467      1.44593463
C      -1.72273118     -0.57295037      0.39499418
O      -1.63617659     -0.87944199     -0.78360184
C      -2.41004965      0.65936223      0.86937461
C      -2.99685136      1.49909485     -0.08778384
C      -3.65084825      2.66828171      0.30588289
C      -3.72204719      3.00567288      1.65662119
C      -3.14060532      2.17679639      2.61555364
C      -2.48540662      1.00593317      2.22569383
H      -1.85128656     -3.69447860      2.26192166
H      -0.23858194     -4.41665201      2.06718410
H      -0.50760069     -3.08503400      3.21722566
H      -0.78524330     -2.88093120      0.16925120
H       1.29354220     -1.57374177      2.02317822
H       1.61818635     -3.03824633      1.03552622
H       0.69494596     -0.13614200     -2.04162247
H       1.07770233      1.31421290     -3.99371935
H       3.32458062      2.27985358     -4.41889627
H       5.20197980      1.78552099     -2.87218047
H       4.83989960      0.33130990     -0.90338886
H      -2.94647936      1.24522142     -1.14498218
H      -4.10371959      3.31497152     -0.44166068
H      -4.23098175      3.91664527      1.96262970
H      -3.19644518      2.44262011      3.66848702
H      -2.03823224      0.37602889      2.99042912
