28
Nc1ccc(S(=O)(=O)Nc2cc[nH]c(=O)n2)cc1
N      -3.59117800      1.46914703      1.96794457
C      -2.88930288      0.74486116      0.99895194
C      -2.52891272      1.35327333     -0.20799989
C      -1.72087626      0.68653465     -1.13254104
C      -1.23256971     -0.58403761     -0.82412750
S      -0.17701516     -1.43405099     -1.97053011
O       0.15908251     -0.52408710     -3.04370721
O      -0.78182722     -2.72170304     -2.22802364
N       1.19015006     -1.71448684     -1.07414086
C       2.06496960     -0.83560860     -0.42983198
C       2.03842370      0.58906867     -0.79798415
C       2.90006016      1.34226954     -0.11421016
N       3.70769987      0.77281862      0.82393538
C       3.71117606     -0.57028768      1.11886911
O       4.48439550     -0.99211349      1.97267077
N       2.83772592     -1.38032303      0.44167325
C      -1.54461348     -1.18830690      0.39559033
C      -2.35191967     -0.50837734      1.31081320
H      -4.06747481      0.88968905      2.65282907
H      -4.19960854      2.18793864      1.58790504
H      -2.88075291      2.35584015     -0.43943511
H      -1.47574704      1.16891865     -2.07593011
H       1.29219379     -2.69284792     -0.81136064
H       1.40190559      0.99229770     -1.56798725
H       3.00372277      2.41029363     -0.27466841
H       4.37350652      1.32579182      1.34998449
H      -1.16021297     -2.17390207      0.64659676
H      -2.56300069     -0.96861003      2.27326352
