31
CN1C(CCl)Nc2cc(Cl)c(S(N)(=O)=O)cc2S1(=O)=O
C      -2.55018097     -1.72737544     -0.11017890
N      -2.31540481     -0.62024445      0.84363780
C      -2.52092080      0.73773715      0.30777843
C      -3.98303696      0.96313140     -0.12711503
Cl     -4.26170190      2.66936726     -0.59437548
N      -1.60285862      0.96833881     -0.80551082
C      -0.23539837      0.75159117     -0.60114719
C       0.66945412      1.20500332     -1.57144613
C       2.04413249      0.92698003     -1.48630761
Cl      3.04510380      1.55872762     -2.74349991
C       2.53008775      0.15847622     -0.42685215
S       4.25362068     -0.19497394     -0.31694128
N       4.41958706     -1.08311309      1.10372571
O       4.96307767      1.03542067     -0.06114416
O       4.60252813     -1.11725078     -1.37059010
C       1.64531950     -0.33473421      0.53686737
C       0.28161072     -0.03572971      0.43126584
S      -0.82265771     -0.67563984      1.64956342
O      -0.47432748     -2.06036745      1.88392124
O      -0.84962412      0.29117938      2.72582987
H      -2.47085833     -2.68967536      0.40529758
H      -3.56798841     -1.68483531     -0.50657029
H      -1.84797682     -1.71381934     -0.94759544
H      -2.32514414      1.47774930      1.09593950
H      -4.24971173      0.36061287     -0.99991653
H      -4.67560603      0.72567106      0.68631872
H      -1.79228075      1.85795681     -1.27121739
H       0.29987597      1.77906308     -2.42022753
H       4.77928072     -2.01304392      0.87861632
H       5.01932574     -0.56875923      1.75230567
H       1.99267362     -0.94744407      1.36595052
