16
CN(C)CC(=O)[O-].[K+]
C      -0.47860720      1.47799794     -0.04396425
N      -0.47024420      0.19734923      0.66354949
C      -1.35649717     -0.75851188     -0.00098081
C       0.92269502     -0.34778761      0.74863766
C       1.58718534     -0.63524269     -0.63450544
O       1.40985865     -1.80394900     -1.09031419
O       2.24586194      0.32617430     -1.13138639
K       0.00000000      0.00000000      0.00000000
H       0.20910245      2.18782823      0.42894919
H      -1.47649983      1.92778655      0.01276452
H      -0.21565243      1.38817091     -1.10337489
H      -2.39316199     -0.40748847      0.05770752
H      -1.11653907     -0.90675861     -1.05928286
H      -1.32885386     -1.73033628      0.50422789
H       1.55040151      0.35689058      1.30831598
H       0.91095083     -1.27212320      1.33965658
