22
CC(=O)CC(=O)c1ccccc1
C       3.29269745      0.98841528      0.12951660
C       2.40119171      0.14541834     -0.74363141
O       2.24756230      0.39700543     -1.93983043
C       1.67984978     -1.00462024     -0.09782040
C       0.62872200     -0.55319559      0.87801536
O       0.91286072     -0.38146301      2.06337495
C      -0.76299593     -0.29036031      0.40469642
C      -1.09079397     -0.17940193     -0.95192768
C      -2.41188958      0.07015317     -1.33533383
C      -3.40847616      0.21241671     -0.37102598
C      -3.08844316      0.11037389      0.98090672
C      -1.77026563     -0.13763158      1.36830486
H       3.98403002      0.34576999      0.68037202
H       3.87693536      1.67041419     -0.49466973
H       2.68576443      1.57358907      0.82403766
H       1.24832420     -1.65724954     -0.86327989
H       2.41055748     -1.62637666      0.43253501
H      -0.34271248     -0.26579710     -1.73539762
H      -2.66194452      0.15976447     -2.39025205
H      -4.43432571      0.40851546     -0.67377176
H      -3.86315163      0.22624811      1.73495376
H      -1.53349669     -0.21198814      2.42839492
