8
O=C(O)C(Cl)(Cl)Cl
O       0.92660185     -1.52833633     -0.09362847
C       0.54125469     -0.36962539      0.00016739
O       1.48107589      0.59812234      0.16924882
C      -0.90479789      0.14638475     -0.04972545
Cl     -1.27630084      0.97386480      1.48642102
Cl     -1.06734456      1.27853657     -1.41877341
Cl     -2.03625630     -1.21424033     -0.27379623
H       2.33576716      0.11529359      0.18008633
