46
CCOC(=O)C(c1c(O)c2ccccc2oc1=O)c1c(O)c2ccccc2oc1=O
C       0.50573540      5.04286473      0.96859826
C       1.35508248      4.01737413      0.24218599
O       0.98347471      2.69218542      0.64915038
C      -0.02703128      2.10963137     -0.06173789
O      -0.67371378      2.67097555     -0.93691210
C      -0.30413915      0.68974088      0.47021296
C       0.92650306     -0.17404901      0.69003540
C       2.05107280     -0.19711813     -0.04800261
O       2.23069920      0.52420458     -1.20862417
C       3.20666912     -0.99104998      0.36852546
C       4.41094046     -1.02679609     -0.34480230
C       5.48370207     -1.80316219      0.10698540
C       5.36400637     -2.55209419      1.27761949
C       4.17205854     -2.52566656      1.99705489
C       3.11287817     -1.74630881      1.53192640
O       1.93215080     -1.76029600      2.28960854
C       0.82525417     -1.02857783      1.90216046
O      -0.22980344     -1.09029341      2.53341084
C      -1.38902776     -0.02689485     -0.31402744
C      -2.50457961     -0.53496756      0.24025603
O      -2.74195632     -0.57086714      1.59949795
C      -3.57638450     -1.07775913     -0.59275715
C      -4.77073150     -1.58959021     -0.07180365
C      -5.76529767     -2.08227754     -0.92377383
C      -5.57656530     -2.06696500     -2.30588744
C      -4.39317868     -1.56061763     -2.83733465
C      -3.41196483     -1.07456830     -1.97352326
O      -2.23145660     -0.59084693     -2.55848663
C      -1.18619344     -0.12471350     -1.78126621
O      -0.10170292      0.16342981     -2.28426365
H       0.81773316      6.05853335      0.70959655
H       0.58969714      4.91292971      2.05257972
H      -0.55279691      4.92693216      0.71541765
H       2.40740822      4.15153215      0.51309276
H       1.28521063      4.13490721     -0.84528850
H      -0.71936341      0.94637758      1.45705713
H       1.40733131      0.49424953     -1.74873510
H       4.52666941     -0.44767525     -1.25888111
H       6.41307867     -1.82042303     -0.45748746
H       6.19899007     -3.15441668      1.62655209
H       4.06885516     -3.10637682      2.90909487
H      -1.90232294     -0.73737423      2.08306042
H      -4.94077751     -1.60462951      1.00283565
H      -6.68894701     -2.47505037     -0.50525199
H      -6.35142922     -2.44880251     -2.96577241
H      -4.23583736     -1.54563975     -3.91189574
