44
CCCC(=O)OCn1cc2c(=O)n(COC(=O)CCC)cnc2n1
C      -6.94354856      0.04611541     -1.49885776
C      -5.90170837     -1.05245369     -1.65969822
C      -5.95940807     -2.08240701     -0.53660101
C      -5.53162606     -1.51173047      0.79165050
O      -6.28409189     -1.33147308      1.73859132
O      -4.20517496     -1.22759342      0.78843602
C      -3.75278208     -0.69865197      2.03617983
N      -2.34628768     -0.34202025      1.89146921
C      -1.81701332      0.53783755      0.97739873
C      -0.46615690      0.55915888      1.23253576
C       0.62646327      1.26086178      0.63259295
O       0.49009438      2.02434846     -0.31666076
N       1.83143376      0.97104483      1.25843382
C       3.03696615      1.58858177      0.75628630
O       3.65035274      0.66865698     -0.14666710
C       4.82345187      1.13226203     -0.65920959
O       5.33432823      2.20137910     -0.36069322
C       5.37124616      0.13603346     -1.65515781
C       6.80542389      0.44040840     -2.08321842
C       7.82059111      0.13316850     -0.99073077
C       1.91626281      0.07066105      2.31080197
N       0.94728787     -0.58305251      2.87109387
C      -0.29060681     -0.31494203      2.29999297
N      -1.41784927     -0.87027541      2.72556391
H      -7.95385469     -0.37386031     -1.45931959
H      -6.77460442      0.62536943     -0.58546819
H      -6.89681709      0.73660926     -2.34695326
H      -4.90599424     -0.59671146     -1.71397890
H      -6.07404053     -1.56243775     -2.61486001
H      -6.97427469     -2.48314901     -0.43160195
H      -5.30862860     -2.93480436     -0.76353402
H      -3.83578290     -1.45093227      2.82793939
H      -4.28591241      0.22139431      2.30016329
H      -2.42992309      1.04632337      0.24595275
H       2.80364176      2.52632797      0.23954396
H       3.70986689      1.78436562      1.59988479
H       4.72083385      0.16931868     -2.53660377
H       5.31869550     -0.86843256     -1.22056099
H       7.04700960     -0.16979447     -2.96145850
H       6.90214029      1.48942323     -2.38556672
H       8.83415565      0.33469296     -1.35171275
H       7.77044015     -0.91967704     -0.69487085
H       7.65257542      0.74724702     -0.10110453
H       2.94282527     -0.07719096      2.68616165
