19
C=CC(O)C(C)C
C       2.65482582     -0.62822838     -0.00426659
C       1.55680673     -0.42821664     -0.74538665
C       0.15715411     -0.74566208     -0.30108657
O      -0.33864279     -1.73046347     -1.20471555
C      -0.78232658      0.47931484     -0.32084817
C      -0.29975197      1.59157740      0.61465990
C      -2.21283032      0.07729070      0.05972096
H       3.63757558     -0.37538370     -0.39117970
H       2.60215119     -1.04111662      0.99842963
H       1.66273309     -0.01105380     -1.74511049
H       0.15796211     -1.19220782      0.70092463
H       0.31140059     -2.45383416     -1.21317648
H      -0.82499463      0.87970073     -1.34289739
H      -1.00152398      2.43270262      0.61185965
H       0.67446320      1.98152634      0.30363163
H      -0.21004345      1.23075792      1.64498342
H      -2.87783450      0.94756852      0.04391165
H      -2.61948062     -0.65770943     -0.64234000
H      -2.24764359     -0.35656300      1.06488013
