28
CC(C)(C)OOC(=O)c1ccccc1
C      -2.71544977      0.78989575     -1.03280708
C      -2.49027820      0.05015671      0.29031449
C      -2.08212589     -1.40680049      0.04860465
C      -3.78506257      0.07946080      1.11110495
O      -1.51145423      0.73845147      1.08656426
O      -0.25250699      0.75959859      0.34013229
C       0.68343418      0.11694286      1.09527818
O       0.50826443     -0.42927464      2.17444516
C       2.00003082      0.14080159      0.39979077
C       3.07324613     -0.53387719      0.99956304
C       4.32929978     -0.54586091      0.38991882
C       4.52193734      0.11608288     -0.82144865
C       3.46160671      0.79123932     -1.42495982
C       2.20270177      0.80581035     -0.81844848
H      -3.53791962      0.34731330     -1.60463265
H      -1.81893653      0.76622223     -1.66205180
H      -2.94362712      1.84666245     -0.85376047
H      -1.85117247     -1.90908154      0.99461788
H      -1.18180555     -1.47360066     -0.57166748
H      -2.87648801     -1.96606317     -0.45708753
H      -3.64244710     -0.41144564      2.08086709
H      -4.60881122     -0.41845515      0.58899206
H      -4.08596559      1.11096902      1.32834896
H       2.93473941     -1.05343805      1.94645112
H       5.15637767     -1.07098487      0.86171606
H       5.50083584      0.10714378     -1.29513505
H       3.61593357      1.30881871     -2.36893216
H       1.39564319      1.34331250     -1.30988104
