46
CCOC(=O)C(C)OC(=O)c1cc(Oc2ccc(C(F)(F)F)cc2Cl)ccc1[N+](=O)[O-]
C      -7.69381724      1.47701843      0.16333461
C      -6.23359283      1.52414479     -0.24164153
O      -5.71046657      0.19160013     -0.18556543
C      -4.39379817      0.09326884     -0.53129158
O      -3.69114244      1.03203949     -0.88812922
C      -3.92382579     -1.35930069     -0.41879182
C      -4.55510447     -2.19424760     -1.52432289
O      -2.49956138     -1.45747379     -0.58051695
C      -1.78837152     -1.03334756      0.49021731
O      -2.23310550     -0.61211435      1.54318523
C      -0.35285910     -1.05241984      0.15436664
C       0.39765075      0.08164600      0.49380472
C       1.75594311      0.16040023      0.16443252
O       2.37685774      1.33465902      0.53709015
C       3.74976205      1.36472504      0.55132269
C       4.38957224      2.02671613     -0.49923681
C       5.78270088      2.12012825     -0.51782416
C       6.54872361      1.57502360      0.52551647
C       8.05623489      1.65994371      0.49063676
F       8.50839483      2.83259150     -0.03337370
F       8.62835680      1.55453307      1.72160386
F       8.60657535      0.67172566     -0.26639095
C       5.89188853      0.92682828      1.58576143
C       4.49754912      0.83242372      1.60655035
Cl      3.74750957      0.05955921      2.95376919
C       2.36987373     -0.89466772     -0.52111661
C       1.63653240     -2.03872737     -0.84806317
C       0.28124041     -2.11208631     -0.49764774
N      -0.42853916     -3.34443526     -0.78560446
O      -1.04288879     -3.87762181      0.14738267
O      -0.33542170     -3.79227990     -1.93604682
H      -8.25830902      0.82036187     -0.50677916
H      -8.13855388      2.47577999      0.13667668
H      -7.80061769      1.06930089      1.17404471
H      -5.67842051      2.16818627      0.44944515
H      -6.14571106      1.91336539     -1.26205471
H      -4.21319085     -1.76197224      0.55980485
H      -4.27683411     -1.80797842     -2.51163249
H      -4.19741997     -3.22855550     -1.47445205
H      -5.64721434     -2.19707079     -1.45572399
H      -0.07873042      0.91483669      1.01012676
H       3.80304882      2.46706400     -1.30251718
H       6.27171847      2.62968847     -1.34794559
H       6.47279051      0.50173238      2.40400286
H       3.41744686     -0.85194474     -0.80756987
H       2.12712583     -2.86304714     -1.36325666
