29
Nc1ccc(S(=O)(=O)Nc2cccc(Cl)c2Cl)cc1
N       2.90127183      2.55544462     -1.71680542
C       2.47846072      1.40147920     -1.04930876
C       1.92840914      1.49407493      0.23331360
C       1.38800673      0.37006347      0.86249646
C       1.34879781     -0.84629214      0.17813604
S       0.65403422     -2.28312369      0.96125384
O       0.58756080     -2.02964811      2.38468035
O       1.34445593     -3.44221169      0.43712257
N      -0.91820601     -2.34364652      0.33447417
C      -1.74643198     -1.17548992      0.43029056
C      -2.14033376     -0.71319516      1.68915273
C      -2.91816395      0.43837750      1.80320649
C      -3.30962016      1.13053719      0.65780601
C      -2.93105031      0.66987191     -0.60735138
Cl     -3.46508450      1.57757192     -1.97823533
C      -2.15032376     -0.48705034     -0.72872348
Cl     -1.67390364     -1.09734065     -2.28295921
C       1.86145438     -0.94915666     -1.11619867
C       2.39766076      0.18386668     -1.73307771
H       3.54758672      2.37910022     -2.47993917
H       3.22705606      3.29458248     -1.10165392
H       1.92096119      2.44724907      0.75632890
H       0.99011509      0.45828803      1.87075078
H      -0.92544543     -2.82002632     -0.57009832
H      -1.85201228     -1.25029726      2.59107711
H      -3.22066314      0.79375035      2.78614857
H      -3.91634248      2.02835036      0.75705363
H       1.83416901     -1.89266078     -1.65616965
H       2.75758100      0.10753134     -2.75631931
