19
C=Cc1ccc(C)cc1
C      -3.49238542      0.38509103      0.45642431
C      -2.56914868     -0.47202004      0.00166039
C      -1.11791871     -0.25771272      0.08419204
C      -0.27744435     -1.36787889      0.23044898
C       1.11135065     -1.21176433      0.28519223
C       1.68621843      0.05970092      0.19343238
C       3.17650259      0.22509463      0.21762302
C       0.85173721      1.16796653      0.01642214
C      -0.53717858      1.01023012     -0.03738681
H      -3.23265673      1.32142648      0.93889981
H      -4.54863907      0.15088797      0.36745428
H      -2.89066675     -1.40918539     -0.44713280
H      -0.69632768     -2.36843694      0.31008310
H       1.73974834     -2.09199166      0.40011742
H       3.64505398     -0.54621786      0.83791728
H       3.57747741      0.15440652     -0.79812553
H       3.45489699      1.19562488      0.64164946
H       1.27583723      2.16431853     -0.08545410
H      -1.15645688      1.89046022     -0.18942514
