26
N=C(N)N1CCc2ccccc2C1
N       3.20182276      1.35595837     -0.86324684
C       2.76373099      0.35512716     -0.18399570
N       3.60088365     -0.43354207      0.52493841
N       1.44146791      0.02672427     -0.06739481
C       1.00762488     -1.37143847     -0.20270849
C      -0.25773591     -1.60072543      0.62315142
C      -1.32393731     -0.58623350      0.30382888
C      -2.66329555     -0.84912588      0.62303592
C      -3.65067809      0.09787684      0.35433792
C      -3.30769620      1.31566974     -0.22717403
C      -1.97520995      1.59038972     -0.53601856
C      -0.96841266      0.65000456     -0.26469431
C       0.46683042      0.97856098     -0.63379243
H       4.21976861      1.38617052     -0.80845581
H       4.51345997     -0.03272028      0.69319961
H       3.17723774     -0.73509039      1.39467510
H       0.82463099     -1.59529176     -1.26205710
H       1.77212907     -2.07748497      0.14024046
H      -0.02159482     -1.52489237      1.69181992
H      -0.63038913     -2.61329736      0.42943518
H      -2.94328370     -1.79393360      1.08300825
H      -4.68783293     -0.11360798      0.60059796
H      -4.07719179      2.05365508     -0.43800676
H      -1.72130320      2.54684303     -0.98874821
H       0.68832973      1.98555662     -0.25788812
H       0.55064453      0.98484718     -1.72808788
