27
CCCCOCCC(=O)OC
C      -4.57683859     -0.14404805      1.16022562
C      -3.13510099      0.30602679      0.98332191
C      -2.81579679      0.59435695     -0.48538228
C      -1.38262021      1.08084750     -0.67907910
O      -0.47731143      0.04595250     -0.29766460
C       0.88386544      0.45146729     -0.45377135
C       1.77632565     -0.70115315     -0.02794689
C       3.22804123     -0.33669692     -0.16801707
O       3.65254926      0.73775811     -0.56962889
O       4.00324446     -1.38822168      0.22145827
C       5.40720941     -1.14387230      0.12625522
H      -4.77343639     -1.06121479      0.59588515
H      -5.27368063      0.62722585      0.81689766
H      -4.78466663     -0.34365090      2.21611188
H      -2.96371271      1.20670463      1.58421348
H      -2.46879368     -0.47351591      1.36993924
H      -2.96859441     -0.32220742     -1.06815195
H      -3.50647104      1.35304669     -0.87127452
H      -1.22295241      1.32932730     -1.73447282
H      -1.20000526      1.97633835     -0.07390526
H       1.06913498      0.71365707     -1.50232234
H       1.07542658      1.33475013      0.16725004
H       1.56488182     -1.58104088     -0.64571446
H       1.57004153     -0.96305939      1.01581140
H       5.93112398     -2.04378960      0.46000600
H       5.69657004     -0.31294854      0.77722133
H       5.69156679     -0.94203964     -0.91120571
