29
CC(=O)OCC(COC(C)=O)OC(C)=O
C      -4.01258083     -2.41368904     -0.16615393
C      -3.58245307     -1.03690911      0.23720417
O      -4.33460304     -0.16907544      0.65611138
O      -2.23856883     -0.90058567      0.07358515
C      -1.73148370      0.39495077      0.41520941
C      -0.21883571      0.44264699      0.18237111
C       0.50932310     -0.52827151      1.12673030
O       1.91890571     -0.58297757      0.83948896
C       2.26117047     -1.37372575     -0.21612966
C       3.73726370     -1.30095615     -0.45769013
O       1.48387294     -2.06066423     -0.86425858
O       0.21286512      1.79592459      0.46368737
C       1.26205802      2.26500896     -0.26466129
C       1.59495989      3.66104243      0.16517119
O       1.85510744      1.65547825     -1.14238641
H      -5.09492634     -2.50690626     -0.03908758
H      -3.76990646     -2.58462182     -1.21795257
H      -3.52156249     -3.15591870      0.46812671
H      -2.21793089      1.15656622     -0.20740324
H      -1.95895561      0.62284962      1.46452687
H      -0.01647171      0.18393469     -0.86376727
H       0.42719846     -0.17289757      2.16015999
H       0.08355491     -1.53803802      1.09669264
H       3.98514401     -1.87038519     -1.35800192
H       4.03895420     -0.26223247     -0.61405339
H       4.27235039     -1.73283072      0.39148362
H       2.44152111      4.02882691     -0.42170481
H       0.73852012      4.31698628     -0.00968417
H       1.87550909      3.66646950      1.22142744
