45
CO/N=C(\C(=O)N[C@@H]1C(=O)N2C(C(=O)O)=C(COC(N)=O)CS[C@H]12)c1ccco1
C      -5.14293946     -3.46253507     -0.72716273
O      -4.27987834     -2.33479494     -0.82468225
N      -4.61002157     -1.43028102      0.19660596
C      -3.92134296     -0.32741332      0.09996610
C      -2.86978592     -0.09486789     -0.97633444
O      -3.06216938      0.69736980     -1.88792597
N      -1.72867957     -0.85831309     -0.83288109
C      -0.63318982     -0.77573557     -1.82858352
C       0.60056847     -1.68488850     -1.56645825
O       0.78135175     -2.85214813     -1.30668316
N       1.42529139     -0.60976451     -1.62670349
C       2.67602266     -0.42043570     -1.10753900
C       3.61190270     -1.58271304     -1.13277521
O       4.36328043     -1.93497582     -0.24200467
O       3.57584067     -2.21225562     -2.32250761
C       3.05282206      0.76475636     -0.57451330
C       4.45454287      1.07245004     -0.09974953
O       4.45407629      1.04397735      1.32754574
C       5.61715951      1.45708961      1.87442771
N       5.56895378      1.32621081      3.21817337
O       6.58673449      1.88784505      1.27185052
C       2.09606931      1.91972884     -0.37780975
S       0.37807107      1.36575219     -0.16569759
C       0.38545690      0.39965299     -1.70470263
C      -4.10400015      0.73856066      1.04966133
C      -5.00255255      0.89322602      2.09044091
C      -4.71869369      2.13952073      2.69841357
C      -3.65765069      2.66672278      2.00335404
O      -3.27768343      1.82763501      1.00720155
H      -6.18699104     -3.15173177     -0.83762989
H      -4.89395493     -4.15817423     -1.53243970
H      -4.99843736     -3.96552519      0.23436521
H      -1.73396692     -1.58689777     -0.12629873
H      -1.02126643     -0.91568760     -2.84690922
H       4.15650812     -2.98998134     -2.19503309
H       5.20018178      0.36980930     -0.48489153
H       4.73396483      2.07214853     -0.45912294
H       6.42808319      1.45200132      3.73333009
H       4.81442677      0.79311763      3.62297045
H       2.35098027      2.48276002      0.52578999
H       2.16309023      2.60788545     -1.22708363
H       0.45576774      1.00796095     -2.61385480
H      -5.77534232      0.18676637      2.36422413
H      -5.22354054      2.59378790      3.53908427
H      -3.08906019      3.58238446      2.08372483
