27
CCC1(c2ccccc2)NC(=O)NC1=O
C      -1.59816133     -2.12012058     -0.01388597
C      -1.58223878     -0.85453554      0.83708703
C      -0.79477224      0.31530943      0.21022043
C       0.68925886      0.02151211     -0.00093299
C       1.50747076     -0.29709736      1.09987965
C       2.86506133     -0.58179706      0.93548420
C       3.43432835     -0.55421248     -0.33323554
C       2.64725694     -0.23900449     -1.43651055
C       1.28850628      0.04663097     -1.27325223
N      -1.46237934      0.79214163     -0.98962007
C      -1.92686713      2.07544218     -0.87588103
O      -2.53148472      2.67646935     -1.74499727
N      -1.61849498      2.54203422      0.35164111
C      -0.99699288      1.58243834      1.08961746
O      -0.68044330      1.71845980      2.26407748
H      -2.18990021     -2.89552331      0.48359336
H      -2.04697940     -1.93750276     -0.99483740
H      -0.58973205     -2.51748267     -0.16262490
H      -1.17535116     -1.10416866      1.82501806
H      -2.62258059     -0.54833973      1.01259518
H       1.09627154     -0.31680484      2.10875612
H       3.47745673     -0.82037145      1.80154791
H       4.49104698     -0.77322777     -0.46148578
H       3.09144418     -0.21163365     -2.42858814
H       0.71403474      0.29354035     -2.16263740
H      -1.60480036      0.25838532     -1.83541179
H      -1.88095824      3.44945865      0.69438309
