46
O=C1CCCCCCCCCOCCCCCO1
O      -2.07342243     -3.31437571     -1.90486216
C      -1.99163857     -2.85316667     -0.77068987
C      -3.18269038     -2.61990923      0.12761996
C      -3.66957488     -1.17533894      0.03135993
C      -2.88245941     -0.21109641      0.93106072
C      -2.33536149      0.98262686      0.13881949
C      -1.62978576      1.98950094      1.05159429
C      -1.06028548      3.20064206      0.29878840
C       0.00563777      2.87949591     -0.75524630
C       1.30492739      2.33071534     -0.16149564
C       2.19969958      1.73414458     -1.24782302
O       3.50968401      1.41047193     -0.79496041
C       3.62496445      0.38551751      0.18501480
C       3.88484704     -0.99786022     -0.41722718
C       2.70822421     -1.67179324     -1.13271852
C       1.45530413     -1.80467023     -0.26795394
C       0.32268362     -2.51306758     -1.00449405
O      -0.83998413     -2.45195557     -0.16477523
H      -2.94876901     -2.92375688      1.15369200
H      -3.97260639     -3.29432168     -0.22356047
H      -3.63804573     -0.84631544     -1.01653600
H      -4.72620088     -1.14266647      0.33439094
H      -3.54680695      0.15314822      1.72615332
H      -2.05071033     -0.71964766      1.43076929
H      -1.64045412      0.60376554     -0.61991874
H      -3.15591817      1.48448056     -0.38920551
H      -2.35323412      2.36021975      1.78978004
H      -0.84031544      1.48980042      1.62363897
H      -1.88791178      3.72452842     -0.19501509
H      -0.64183419      3.90397093      1.02968795
H       0.23857472      3.80202017     -1.30208653
H      -0.40048810      2.18418023     -1.49753370
H       1.08283194      1.56327226      0.58561506
H       1.84071947      3.12626857      0.37161582
H       1.72696832      0.86198957     -1.70409168
H       2.32913117      2.47171995     -2.04626218
H       2.79272024      0.37954790      0.89405823
H       4.51061028      0.64809436      0.77604431
H       4.21980241     -1.66368264      0.38847700
H       4.71340169     -0.92376267     -1.13300805
H       3.03249211     -2.67277183     -1.44513455
H       2.47998313     -1.13448358     -2.06004604
H       1.09441101     -0.82006247      0.04700639
H       1.68719766     -2.34978130      0.65679925
H       0.12209486     -2.00418599     -1.95674729
H       0.58158651     -3.56144956     -1.19273039
