73
CCCCCCCCCCCCCCCCOC(=O)Oc1c(Cl)cc(C(=O)OCC)cc1Cl
C     -10.73872340      1.76018045      2.89874179
C      -9.95508024      0.95231118      1.87614223
C      -9.04730133      1.84741837      1.03281862
C      -8.26369852      1.03243933      0.00126628
C      -7.35949819      1.93285695     -0.84257508
C      -6.61991992      1.18472779     -1.95563697
C      -5.68861694      0.05393135     -1.50386601
C      -4.58583277      0.51964266     -0.54986885
C      -3.61715856     -0.59738789     -0.14799592
C      -2.73083384     -1.07700676     -1.30000458
C      -1.67951139     -2.07653101     -0.80992656
C      -0.78009898     -2.54230736     -1.95709407
C       0.25167999     -3.59290064     -1.53431491
C       1.23254151     -3.15918944     -0.43945542
C       2.02486617     -1.88384658     -0.72950406
C       2.93411086     -1.99504441     -1.95085065
O       3.63472594     -0.75915304     -2.15672297
C       4.77679327     -0.60189619     -1.43833750
O       5.24195792     -1.41282336     -0.64857840
O       5.30843868      0.63741933     -1.75039905
C       6.47510124      0.89189284     -1.02395436
C       6.39769996      1.53228012      0.21678000
Cl      4.88084574      2.00889830      0.88798342
C       7.56216272      1.80223732      0.93774859
C       8.81115989      1.44062132      0.41243770
C      10.08433338      1.70183010      1.13655943
O      11.17744670      1.38001375      0.70157778
O       9.84261342      2.33241023      2.31086906
C      10.99902475      2.64335906      3.10355891
C      11.34396665      1.47176547      4.00343340
C       8.88415153      0.81483534     -0.84100593
C       7.71896730      0.54692420     -1.56003378
Cl      7.85268894     -0.20425617     -3.10669197
H     -10.06536307      2.28799455      3.58171613
H     -11.37780138      1.10042388      3.49405021
H     -11.37869191      2.49982292      2.40739211
H     -10.65703101      0.41582564      1.22687346
H      -9.35391348      0.19838776      2.39729859
H      -9.65269080      2.60571400      0.52092520
H      -8.34717396      2.38076554      1.68793317
H      -8.96293012      0.49762051     -0.65328144
H      -7.66320841      0.27836951      0.52273845
H      -7.97092372      2.71497200     -1.31052749
H      -6.64212826      2.45223107     -0.19672082
H      -6.03498043      1.91339530     -2.53072267
H      -7.35812143      0.76641792     -2.65140650
H      -6.27091030     -0.74763533     -1.03470829
H      -5.23950513     -0.37909570     -2.40499800
H      -4.02629061      1.34771962     -1.00171262
H      -5.04080217      0.90756197      0.36874268
H      -4.17773370     -1.44358560      0.26744953
H      -2.97758065     -0.21663663      0.65830522
H      -3.34310548     -1.55137652     -2.07482885
H      -2.22990056     -0.21705172     -1.76075440
H      -1.07559390     -1.60285059     -0.02801139
H      -2.17760085     -2.94251318     -0.35753502
H      -0.27405964     -1.68061770     -2.40747303
H      -1.40504401     -2.97779644     -2.74724212
H      -0.27808862     -4.48816503     -1.18465763
H       0.81432217     -3.90546367     -2.42210211
H       0.68701808     -3.02526465      0.50230166
H       1.93651269     -3.98211042     -0.26203270
H       2.63335675     -1.64615011      0.15184542
H       1.35339668     -1.02542256     -0.84759841
H       2.34340932     -2.16704115     -2.85581420
H       3.63517404     -2.83342244     -1.86144834
H       7.48792495      2.29305637      1.90538844
H      10.74267396      3.51529381      3.71412428
H      11.84961612      2.92976189      2.47456593
H      12.18950912      1.71708756      4.65238016
H      11.60051725      0.58576401      3.41401276
H      10.48602022      1.20167622      4.62766946
H       9.85271983      0.53797488     -1.25523697
