36
NCCCCCCCCCCN
N      -3.55898349     -1.02740678      1.68683567
C      -4.23990150     -0.69263465      0.44163475
C      -3.26258705     -0.19702977     -0.62662741
C      -2.57471712      1.11697618     -0.24238502
C      -1.71688256      1.70492485     -1.36771314
C      -0.57018797      0.81884405     -1.86445293
C       0.43492927      0.45238594     -0.76961312
C       1.62017158     -0.32625820     -1.34650177
C       2.59737996     -0.82497492     -0.27688837
C       3.31508907      0.30844985      0.46315943
C       4.43790956     -0.18332230      1.38119287
N       3.95401636     -1.00238859      2.48649098
H      -2.87897368     -1.76716309      1.51673295
H      -4.23424239     -1.40677215      2.34935647
H      -4.99906918      0.07179012      0.63914716
H      -4.76002639     -1.58214494      0.06943081
H      -3.81727493     -0.05275977     -1.56192140
H      -2.51391730     -0.97454309     -0.81897313
H      -1.96249981      0.97875301      0.65557878
H      -3.34129869      1.85717563      0.01977313
H      -2.36484076      1.94292381     -2.22054955
H      -1.30169502      2.65999622     -1.02217946
H      -0.97128230     -0.09284435     -2.32188681
H      -0.04759961      1.35876218     -2.66425720
H      -0.05332411     -0.15742460     -0.00139994
H       0.78813319      1.36977262     -0.28601158
H       2.15614122      0.29759038     -2.07210660
H       1.24287610     -1.19714668     -1.89693814
H       2.05662651     -1.45962360      0.43469987
H       3.34400803     -1.46183171     -0.76718064
H       2.59580623      0.88890093      1.05279847
H       3.75101887      0.99744455     -0.27081544
H       5.17439867     -0.75448265      0.80554271
H       4.96242041      0.68335534      1.79816545
H       3.22328773     -0.49961577      2.98924382
H       3.51509109     -1.84767807      2.12521866
