57
CCOP(=O)(Cc1cc(C(C)(C)C)c(O)c(C(C)(C)C)c1)OCC
C       6.34498088      1.63087222      1.79229060
C       5.12220532      1.82461617      0.92016137
O       4.58117654      0.55252697      0.60642171
P       3.16385039      0.52370191     -0.17052758
O       3.05148772      1.55834940     -1.25076290
C       1.94686180      0.62762550      1.14990547
C       0.50174678      0.40987379      0.77017296
C      -0.16409197      1.35924234     -0.00978493
C      -1.49892592      1.18398968     -0.40903103
C      -2.20976231      2.25213719     -1.27830124
C      -2.69649359      1.63358294     -2.60862838
C      -1.29613236      3.44281119     -1.67410302
C      -3.40311145      2.86598646     -0.51289964
C      -2.14505725     -0.00250683      0.02413165
O      -3.46487189     -0.13469460     -0.31027482
C      -1.49847328     -1.01735351      0.77469757
C      -2.16274969     -2.36004652      1.17701648
C      -1.13558726     -3.45335031      1.58470020
C      -2.97607617     -2.98809462      0.01957557
C      -3.07566714     -2.13533394      2.40002941
C      -0.16687814     -0.75884560      1.15078014
O       3.10178304     -1.00365168     -0.68807529
C       2.27920833     -1.27941786     -1.81015497
C       1.98466445     -2.76433269     -1.84252842
H       6.08125034      1.10280795      2.71477536
H       7.09300028      1.01858589      1.27773255
H       6.79499163      2.59293029      2.05274485
H       4.37481181      2.42502414      1.44791559
H       5.39868172      2.33643806     -0.00690930
H       2.02957719      1.61323844      1.62377218
H       2.23344735     -0.09514641      1.92352960
H       0.39497567      2.24343544     -0.30710440
H      -3.47779594      0.88128602     -2.47097311
H      -1.86867467      1.15370147     -3.14404136
H      -3.11888060      2.40047215     -3.26880689
H      -1.83607015      4.16620377     -2.29752100
H      -0.93819645      3.98923609     -0.79356304
H      -0.42616365      3.11004909     -2.25255920
H      -3.85846724      3.68417415     -1.08373844
H      -4.20098033      2.14478818     -0.31561021
H      -3.08221282      3.27322885      0.45331423
H      -3.93770317     -0.43136405      0.48129274
H      -0.39833491     -3.62514837      0.79206786
H      -1.63206994     -4.41132324      1.78280210
H      -0.60065562     -3.19479588      2.50553371
H      -3.90336753     -2.45238339     -0.19715641
H      -3.28176228     -4.01354086      0.26078297
H      -2.38336861     -3.02851196     -0.90181653
H      -3.89492263     -1.44107637      2.19549513
H      -3.52916212     -3.07734606      2.73056992
H      -2.50921045     -1.72552441      3.24488591
H       0.39142662     -1.47809150      1.74391724
H       2.81272970     -0.97894658     -2.71711366
H       1.34521952     -0.71424930     -1.75262294
H       1.47534697     -3.07562991     -0.92463414
H       2.91348115     -3.34111383     -1.90226322
H       1.35497234     -3.01909546     -2.69950900
