42
CC1=NN(c2ccc(S(=O)(=O)[O-])cc2)C(=O)C1N=Nc1ccccc1C(=O)[O-].[Na+].[Na+]
C      -0.99753784     -2.48286255      1.45645174
C      -0.14757975     -1.64826263      0.56101921
N       1.10566973     -1.39817294      0.79817418
N       1.54881045     -0.60126237     -0.24524943
C       2.90528060     -0.17764829     -0.24095287
C       3.76185203     -0.56946520      0.80624972
C       5.10488897     -0.17533702      0.83536952
C       5.60586457      0.62821866     -0.18746555
S       7.35337221      1.11225015     -0.17854643
O       7.31544474      2.37666555      0.55032878
O       8.00290283      0.00458758      0.51920574
O       7.67807195      1.21561694     -1.59954169
C       4.78200048      1.02438849     -1.24112259
C       3.43835722      0.62501734     -1.26195442
C       0.55263677     -0.31531448     -1.20263173
O       0.61219789      0.35455377     -2.22489740
C      -0.67005966     -1.04421994     -0.70395474
N      -1.70604315     -0.07355691     -0.35887811
N      -2.73719254     -0.25030628     -1.04331447
C      -3.81488641      0.48302683     -0.51555425
C      -3.79549704      1.88892752     -0.61611970
C      -4.85697471      2.66661049     -0.15344148
C      -5.96596616      2.04642306      0.40713495
C      -6.00579214      0.65436198      0.50201921
C      -4.93775108     -0.15115119      0.04711603
C      -5.05273201     -1.65512552      0.18153013
O      -6.23380521     -2.12539587      0.27616391
O      -3.99045387     -2.35273993      0.22185581
Na      0.00000000      0.00000000      0.00000000
Na      0.00000000      0.00000000      0.00000000
H      -0.39636036     -2.89865052      2.26951797
H      -1.79362142     -1.86857560      1.88369294
H      -1.43432393     -3.30317899      0.88185052
H       3.39275458     -1.19316932      1.61628856
H       5.75731853     -0.48936404      1.64562994
H       5.18722726      1.64075176     -2.03965563
H       2.83255914      0.95863723     -2.09810106
H      -0.97177022     -1.82908218     -1.40543272
H      -2.93083083      2.37097233     -1.06603964
H      -4.81463944      3.74768773     -0.23694440
H      -6.80324108      2.63506446      0.76846799
H      -6.88015109      0.16907988      0.93537754
