20
COP(=O)(OC)OC(Br)C(Cl)(Cl)Br
C      -2.40322877     -1.49710853     -0.68900922
O      -1.19083234     -0.78087563     -0.81510110
P      -0.57610558     -0.16742415      0.53917802
O      -0.44937783     -1.14795710      1.65940070
O      -1.49246980      1.11708944      0.84514249
C      -1.57374100      2.13899412     -0.12696931
O       0.82072122      0.45842212      0.05401672
C       1.88299918     -0.46210468     -0.15189312
Br      2.20297353     -0.53351620     -2.09825541
C       3.16020003     -0.07181644      0.62619236
Cl      4.49166610     -1.24880207      0.38239094
Cl      3.74572489      1.57521926      0.23244371
Br      2.77253380     -0.08338020      2.56288352
H      -3.16566142     -0.87441248     -0.21320860
H      -2.24230781     -2.40414933     -0.10039493
H      -2.74891374     -1.77939622     -1.68651783
H      -2.32362952      2.86651273      0.19398342
H      -0.61083145      2.64779256     -0.22037458
H      -1.87497451      1.73030631     -1.09485288
H       1.57525500     -1.48339353      0.10094511
