34
N=C(N)NN=C1C=CC(=NNC(=N)N)c2ccccc21
N       3.52480584      0.69252441     -4.47033361
C       2.93121397      0.13894997     -3.47131872
N       3.60557232     -0.02526627     -2.31136786
N       1.63740350     -0.31567045     -3.46953207
N       1.12335364     -1.18257014     -2.53957439
C       0.56103645     -0.65969236     -1.48685082
C       0.42973347      0.79645633     -1.21478733
C      -0.20464513      1.27901386     -0.14480312
C      -0.84746852      0.40169850      0.86756366
N      -1.52733819      0.81103173      1.89761585
N      -1.74615395      2.15389905      2.04152006
C      -2.28932603      2.67120845      3.18063081
N      -2.51548474      2.00488265      4.25908788
N      -2.57900689      3.98879044      3.12082253
C      -0.66739818     -1.06394351      0.67016423
C      -1.18679882     -1.95523539      1.62501605
C      -1.04206716     -3.33395308      1.46355931
C      -0.38037746     -3.83572492      0.34755153
C       0.13696409     -2.95856870     -0.60674814
C      -0.00261435     -1.56839112     -0.45114084
H       2.88390648      0.76350482     -5.26225813
H       4.60398027      0.06621096     -2.45768795
H       3.34890496     -0.89526357     -1.85925277
H       1.27471924     -0.46246164     -4.40840706
H       0.89159436      1.47999697     -1.91834466
H      -0.23856185      2.34963216      0.01202673
H      -2.07242482      2.65355624      1.21767215
H      -2.20862601      1.04887671      4.02173436
H      -1.78352725      4.54783308      2.83794249
H      -2.88547670      4.28610674      4.04445626
H      -1.71015827     -1.58327258      2.50411718
H      -1.44814565     -4.01332703      2.20965557
H      -0.26710044     -4.90959695      0.21775171
H       0.64951181     -3.37123537     -1.47359128
