14
Nc1ccc(Cl)cc1
N       2.35455757      0.14361128     -0.13211745
C       0.95828835      0.06682291     -0.11554274
C       0.32156408     -1.17716991     -0.15667817
C      -1.06644211     -1.27400024     -0.01980331
C      -1.81963428     -0.12454949      0.20216162
Cl     -3.52726837     -0.23914096      0.37497481
C      -1.19397016      1.11479285      0.30403831
C       0.19447241      1.20344771      0.16605502
H       2.71590730      1.05196280     -0.40614508
H       2.80497692     -0.61644195     -0.63232642
H       0.90265187     -2.08501798     -0.29623909
H      -1.54659761     -2.24694985     -0.07321874
H      -1.77392685      2.01127293      0.50405624
H       0.67542087      2.17135991      0.28078501
