24
O=C(CO)C(O)C(O)C(O)CO
O      -2.19193724     -1.48121453      0.72611732
C      -1.48703643     -0.48069456      0.90645424
C      -2.08768227      0.91703469      0.94000816
O      -3.49715121      0.86376060      1.12360475
C       0.01525951     -0.61732669      1.09946970
O       0.26807750     -1.77401341      1.92601265
C       0.75106951     -0.84671606     -0.22889793
O       2.14658282     -1.05083871      0.06823591
C       0.57905915      0.29794647     -1.23850896
O       0.64558335      1.56968407     -0.57363283
C       1.62599921      0.27422965     -2.35622490
O       1.34363082      1.36359100     -3.24230657
H      -1.88767488      1.42607889     -0.00413708
H      -1.65985144      1.48384973      1.77036910
H      -3.79978774      0.02466506      0.72319372
H       0.41457685      0.23867801      1.65116274
H      -0.40818740     -2.43959353      1.68143428
H       0.41465072     -1.78245240     -0.69217568
H       2.16703920     -1.56134852      0.90440364
H      -0.42298227      0.25030767     -1.68058718
H       0.82279794      2.21502281     -1.29092527
H       1.58606151     -0.66168995     -2.92111219
H       2.63563182      0.43337599     -1.96519347
H       2.02627099      1.33766371     -3.93724984
