48
C/C=C/C(CCC)(C(=O)O)C(CCC)(CCC)C(=O)O
C       2.12218461     -2.73898254     -2.03664985
C       1.75573141     -1.80420000     -0.92777354
C       1.22328423     -0.58559868     -1.12498780
C       0.80676995      0.47480548     -0.07768413
C       1.49029015      0.23916052      1.31884760
C       3.03236399      0.31464217      1.33758785
C       3.57734926      0.00491072      2.72578697
C       1.34816108      1.83036187     -0.61552285
O       1.68704268      2.09089438     -1.76083849
O       1.39035131      2.81210556      0.30903333
C      -0.80450969      0.56078314     -0.02691302
C      -1.54904813     -0.80952004      0.20150750
C      -1.11364032     -1.74552574      1.33245906
C      -2.12163977     -2.87239562      1.53126708
C      -1.37201960      1.13170744     -1.39897915
C      -2.90448817      1.20541189     -1.53007394
C      -3.31300535      1.94433088     -2.79747921
C      -1.22612412      1.50613882      1.10916333
O      -1.40383881      1.20393859      2.27867562
O      -1.39047824      2.79079242      0.74297003
H       1.90840854     -2.31799043     -3.02403295
H       1.56116137     -3.67301728     -1.93532598
H       3.19036631     -2.97150705     -1.98870670
H       1.94829390     -2.17881760      0.07345782
H       1.06438095     -0.28905086     -2.16439050
H       1.20594092     -0.72919478      1.73226983
H       1.13221278      0.98217735      2.04094779
H       3.47562713     -0.38850570      0.62751433
H       3.37509089      1.31392537      1.05074466
H       4.66984131      0.07183269      2.72708466
H       3.19285720      0.71419500      3.46561155
H       3.29904688     -1.00618074      3.03969685
H       1.70548674      3.59096793     -0.19649816
H      -1.52033540     -1.38784817     -0.73212814
H      -2.60919950     -0.58711395      0.38517479
H      -1.00799667     -1.20913374      2.27864208
H      -0.15495924     -2.20968364      1.09689002
H      -2.24115602     -3.45809305      0.61414532
H      -3.10126098     -2.47752079      1.81893708
H      -1.78272413     -3.54717281      2.32370549
H      -1.01086444      0.51287638     -2.22880632
H      -0.97826670      2.13888364     -1.57926506
H      -3.34787751      1.71337971     -0.66789298
H      -3.33142574      0.19790559     -1.57395063
H      -2.94896870      2.97661877     -2.78458221
H      -2.91203331      1.44834969     -3.68716127
H      -4.40368524      1.97070030     -2.88533284
H      -1.61269781      3.24525690      1.58285505
