26
CCc1cccc(CC)c1N
C      -3.26667120     -0.83546720     -0.05660810
C      -2.23260130     -0.61502608     -1.15104204
C      -1.05519776      0.20568614     -0.66863982
C      -1.06187145      1.58350790     -0.95348595
C      -0.03982849      2.41100817     -0.50374904
C       0.98969426      1.87730348      0.26168930
C       1.01834131      0.50695228      0.57715124
C       2.15312994      0.01075867      1.44783991
C       3.32178315     -0.50537155      0.62107739
C       0.02061797     -0.35298518      0.06062838
N      -0.01294208     -1.70571499      0.45072049
H      -2.84700332     -1.38552804      0.79162691
H      -3.65206499      0.11802255      0.32036887
H      -4.11167028     -1.41167711     -0.44676958
H      -1.88953047     -1.57411552     -1.55451465
H      -2.71396131     -0.10823518     -1.99732757
H      -1.87915061      2.02133286     -1.52257807
H      -0.05715341      3.47320014     -0.73119289
H       1.77015495      2.54004835      0.62919847
H       2.50278691      0.82482065      2.09567043
H       1.79797072     -0.76645110      2.13409363
H       3.72615094      0.28072541     -0.02571386
H       3.02480475     -1.34344558     -0.01769757
H       4.12641346     -0.84957054      1.27854631
H      -0.53197155     -2.30544849     -0.17900973
H       0.89976986     -2.09433002      0.65769016
