28
FC1(F)C(F)(F)C(F)(F)C2(F)C(F)(F)C(F)(F)C(F)(F)C(F)(F)C2(F)C1(F)F
F      -2.72222862      0.17106435     -1.51045122
C      -2.61645330      0.16301964     -0.15504782
F      -3.82502075      0.56440005      0.31989901
C      -2.29260193     -1.23692694      0.33230848
F      -2.29181002     -1.26793778      1.69150300
F      -3.25321871     -2.11284043     -0.06431084
C      -0.92943486     -1.67361619     -0.19341558
F      -0.96289403     -1.74889415     -1.54630097
F      -0.64325740     -2.92308143      0.24975159
C       0.16300488     -0.70555053      0.23977759
F       0.20825256     -0.68757754      1.60178106
C       1.52695355     -1.13625682     -0.28211117
F       1.81915157     -2.38440432      0.16084100
F       1.49554638     -1.21108862     -1.63507051
C       2.61645233     -0.16301926      0.15504966
F       3.82502091     -0.56440135     -0.31989278
F       2.72222392     -0.17106097      1.51045362
C       2.29260228      1.23692645     -0.33230931
F       2.29181091      1.26793558     -1.69150392
F       3.25322037      2.11283910      0.06430922
C       0.92943499      1.67361803      0.19341294
F       0.96289336      1.74890091      1.54629789
F       0.64325753      2.92308143     -0.24975902
C      -0.16300438      0.70555059     -0.23977835
F      -0.20825393      0.68757512     -1.60178199
C      -1.52695280      1.13625603      0.28211243
F      -1.81915186      2.38440443     -0.16083587
F      -1.49554294      1.21108463      1.63507185
