55
COc1ccc(OC)c(-c2cccc3c(N)c4c(nc23)CN(C2CCCC2)C4=O)c1
C      -4.61428337      3.46121716      2.44698723
O      -3.96057307      2.96853012      1.28472820
C      -3.89921953      1.61059074      1.13668343
C      -4.43784152      0.66592037      2.00522669
C      -4.30385969     -0.70136235      1.73336259
C      -3.62804203     -1.14111804      0.58940445
O      -3.46044175     -2.46122222      0.25136210
C      -3.83885383     -3.43792392      1.21107934
C      -3.08167120     -0.19426488     -0.30232295
C      -2.36960288     -0.59858628     -1.53532091
C      -3.13054543     -1.08367117     -2.61682202
C      -2.52253909     -1.46331308     -3.80368918
C      -1.14023446     -1.37408622     -3.92187183
C      -0.33659457     -0.90849679     -2.85762421
C       1.07946756     -0.83403350     -2.96102205
N       1.76966599     -1.13946753     -4.15289374
C       1.74844237     -0.26870746     -1.89131634
C       1.07034788      0.11641763     -0.75888673
N      -0.25587585      0.00404861     -0.59852396
C      -0.96888762     -0.49378737     -1.63945350
C       2.02780289      0.65271517      0.26577196
N       3.30731762      0.59435658     -0.43321377
C       4.59748228      0.78216804      0.21875383
C       4.63693515      1.95039218      1.21304751
C       4.62093751      1.29850189      2.58767985
C       5.45799166      0.04811342      2.38215040
C       5.02128401     -0.46543211      1.01561066
C       3.17707424     -0.02805395     -1.66923025
O       4.05903140     -0.36745475     -2.43740323
C      -3.22855882      1.17526867     -0.00787660
H      -5.67114526      3.17487107      2.45635630
H      -4.56601550      4.55410499      2.41989886
H      -4.10571825      3.12805656      3.35775750
H      -4.97057710      0.95539214      2.90475121
H      -4.74551153     -1.39889888      2.43712221
H      -4.92311511     -3.43941588      1.36244674
H      -3.55795694     -4.41951089      0.81720799
H      -3.30600266     -3.29459379      2.15700697
H      -4.21251003     -1.15961303     -2.52415106
H      -3.12223038     -1.82610637     -4.63413352
H      -0.69268676     -1.66412146     -4.86905302
H       1.42156146     -1.95729263     -4.64032915
H       2.78494897     -1.18377216     -4.01431046
H       2.05149083      0.00510122      1.14613149
H       1.79384828      1.68635491      0.53091736
H       5.33147684      0.96438134     -0.57613662
H       5.58361106      2.49219775      1.09040699
H       3.82995758      2.67729044      1.08564994
H       3.59786093      1.03166091      2.87531145
H       5.03469611      1.95217459      3.36079215
H       6.52346187      0.30640964      2.36227716
H       5.30332154     -0.69239704      3.17215916
H       4.19127698     -1.17211288      1.13284290
H       5.83437005     -1.00415955      0.51756486
H      -2.80456881      1.91674005     -0.68286439
