16
O=C(O)CCC(=O)C(=O)O
O      -1.45075332      1.36159682     -0.67791737
C      -1.90426651      0.37982525     -0.11488109
O      -3.17216308      0.36076657      0.33491903
C      -1.18733108     -0.91441271      0.15622257
C       0.24580424     -0.86549883     -0.36163552
C       1.10544379      0.05725774      0.46579625
O       0.81106754      0.53041059      1.56053966
C       2.48359313      0.39685379     -0.09570672
O       2.92251371     -0.08008789     -1.12186765
O       3.12067092      1.26429644      0.71323014
H      -3.52536934      1.24839525      0.11413432
H      -1.72834414     -1.71266815     -0.36344955
H      -1.20912208     -1.11126598      1.23336458
H       0.26385593     -0.52854311     -1.40396857
H       0.68854052     -1.86598389     -0.30945048
H       2.53585975      1.47905810      1.47858537
