50
CCCCCCCCCCCC(=O)OCC(C)C
C      -8.35568929     -1.49385328      0.11605526
C      -6.84001978     -1.38100457      0.18183469
C      -6.36419473     -0.00046039     -0.27230647
C      -4.83881207      0.12911437     -0.33893882
C      -4.16419179      0.06643290      1.03402577
C      -2.63802673      0.19658471      0.96645030
C      -2.16625909      1.57271766      0.48925037
C      -0.65644445      1.78222628      0.64542621
C       0.17987158      0.85404432     -0.23815964
C       1.67048249      1.17809004     -0.12649791
C       2.50636294      0.25148322     -1.00124357
C       3.96796644      0.60340238     -0.90693841
O       4.56653449      1.27407476     -1.73627558
O       4.50646791      0.08135985      0.22909971
C       5.90002690      0.35681863      0.44398862
C       6.78452802     -0.66503097     -0.28363689
C       6.49916145     -2.08955347      0.19607256
C       8.26020166     -0.32316305     -0.08869390
H      -8.83258016     -0.74899801      0.76111563
H      -8.71663107     -1.34514241     -0.90661919
H      -8.67647287     -2.48624757      0.44804103
H      -6.52026858     -1.57615116      1.21071362
H      -6.39447546     -2.15632528     -0.45194693
H      -6.77052055      0.77033599      0.39383241
H      -6.76682133      0.20349545     -1.27240790
H      -4.43110791     -0.65393843     -0.98949213
H      -4.60942262      1.08876435     -0.81562748
H      -4.57172957      0.84985357      1.68423686
H      -4.39281594     -0.89264283      1.51198658
H      -2.24056461     -0.58769766      0.31231276
H      -2.23576367      0.00870187      1.96959608
H      -2.68041664      2.34966520      1.06826563
H      -2.44080436      1.72410193     -0.56071840
H      -0.42798495      2.82400678      0.38826092
H      -0.37327286      1.64789799      1.69647064
H       0.01801017     -0.18946870      0.05425822
H      -0.14005960      0.95350119     -1.28237485
H       1.84790663      2.22019028     -0.42048444
H       1.99040557      1.09007946      0.91924532
H       2.37384573     -0.79899889     -0.71759676
H       2.20608899      0.33202047     -2.05251398
H       6.06904765      0.30322234      1.52572338
H       6.13985003      1.38373332      0.14153872
H       6.55946871     -0.63097900     -1.35665184
H       7.13882925     -2.80950262     -0.32564846
H       6.68358212     -2.19063718      1.27102454
H       5.45907182     -2.37105373      0.00210941
H       8.89829028     -1.03050797     -0.62892958
H       8.47959619      0.68065577     -0.46738179
H       8.53975366     -0.35521792      0.96986530
