41
OC(c1ccccc1)(c1ccccc1)C1CCCCN1
O       0.00887684      1.18119301      1.91630407
C      -0.23476662      0.53869576      0.63810540
C      -1.23238296      1.48082562     -0.07584231
C      -2.46944668      1.76240277      0.54599040
C      -3.40276681      2.61848916     -0.04151980
C      -3.12115700      3.21586893     -1.26508445
C      -1.90922571      2.95518559     -1.89819390
C      -0.97363205      2.09759559     -1.30964696
C      -0.85521834     -0.84938762      0.90226907
C      -0.77070382     -1.46416696      2.16468194
C      -1.32408580     -2.72688949      2.39074671
C      -1.97420858     -3.39960201      1.35976615
C      -2.07307992     -2.81064498      0.10248936
C      -1.51950273     -1.54861850     -0.12422879
C       1.20462914      0.39859874     -0.05186770
C       2.23777966     -0.28737666      0.87957271
C       3.63172346     -0.31272548      0.25444249
C       3.58729196     -0.92984070     -1.13697676
C       2.53060361     -0.24976777     -2.00011128
N       1.20897232     -0.28400842     -1.37373880
H      -0.09275990      2.13777628      1.77354455
H      -2.71107475      1.30150265      1.50371884
H      -4.34879713      2.81331050      0.45658715
H      -3.84609385      3.88012140     -1.72751878
H      -1.68874023      3.41621507     -2.85784529
H      -0.04675260      1.92020422     -1.84844453
H      -0.26698855     -0.95973787      2.98721341
H      -1.24732694     -3.18222113      3.37458046
H      -2.40671374     -4.38041899      1.53737558
H      -2.58498089     -3.32989517     -0.70344337
H      -1.61531639     -1.10671659     -1.11524848
H       1.56787136      1.42618372     -0.20329617
H       1.93351226     -1.31889664      1.09372383
H       2.30069523      0.23574895      1.84017578
H       4.31837394     -0.87868317      0.89363824
H       4.02168077      0.71053607      0.19013693
H       4.57008769     -0.84197795     -1.61342660
H       3.36507142     -2.00136581     -1.05580836
H       2.47310870     -0.75664564     -2.96963507
H       2.81628873      0.78843878     -2.20794523
H       0.93915490     -1.25930525     -1.22524042
