19
COc1ccc(C=O)cc1O
C       2.69691418     -0.88795969      1.33473616
O       1.58244693     -1.45539633      0.65472062
C       0.60538149     -0.58498050      0.24659415
C       0.60112221      0.79710632      0.43431006
C      -0.47162414      1.56218558     -0.03998504
C      -1.53959633      0.94470255     -0.70178213
C      -2.67018314      1.75059173     -1.20170382
O      -2.71388950      2.96616556     -1.05818949
C      -1.54720222     -0.43509428     -0.89559369
C      -0.47528239     -1.18028914     -0.41901095
O      -0.49806737     -2.53461440     -0.61751672
H       3.23893735     -0.18930847      0.68890209
H       3.38065914     -1.70260507      1.59206543
H       2.38610051     -0.40638598      2.26773345
H       1.40955091      1.31285160      0.94192047
H      -0.47224421      2.64095607      0.10799427
H      -3.47910059      1.20299299     -1.71394660
H      -2.36382578     -0.93623669     -1.40562349
H       0.32990292     -2.86468185     -0.21562477
