39
OCC(CO)(CO)COCC(CO)(CO)CO
O      -2.79019121      1.44717134      2.92996153
C      -3.19161709      0.28355816      2.21409332
C      -2.36550078      0.06429896      0.92902825
C      -2.79444012     -1.28113954      0.30317796
O      -2.15938113     -1.52915449     -0.94600321
C      -2.62665018      1.19891850     -0.08807403
O      -2.42594227      2.48009134      0.51414315
C      -0.86117870      0.03569063      1.29416133
O      -0.07808932     -0.27298391      0.12948194
C       1.32761297     -0.24229880      0.41572102
C       2.14308575     -0.30707708     -0.89610874
C       1.80643174      0.90765114     -1.79207966
O       2.02167133      2.15934576     -1.14734560
C       1.79906175     -1.58544010     -1.68503784
O       2.16237380     -2.75111850     -0.95236846
C       3.64589175     -0.32363751     -0.53858899
O       4.05302811      0.91843885      0.03763756
H      -2.72281155      2.16619520      2.26012185
H      -3.08294849     -0.56796772      2.89607836
H      -4.25803515      0.38236224      1.98041428
H      -2.55526907     -2.11640305      0.97103964
H      -3.87538879     -1.30256125      0.12795580
H      -1.21573138     -1.29788425     -0.81100225
H      -1.96770555      1.12200684     -0.95980286
H      -3.66172136      1.16843148     -0.44760948
H      -2.15126459      3.08568759     -0.20068783
H      -0.53902910      1.00313369      1.69717883
H      -0.67038834     -0.73362234      2.05306081
H       1.56217687     -1.09815994      1.05932543
H       1.56759618      0.67119601      0.97387993
H       2.42448636      0.89535420     -2.69595483
H       0.76106328      0.88361621     -2.11745607
H       2.84672821      2.06355710     -0.62302207
H       0.73006453     -1.63650772     -1.91391926
H       2.34284403     -1.61230626     -2.63638847
H       1.67139929     -3.49653339     -1.34190980
H       4.25440899     -0.48716252     -1.43458592
H       3.87708108     -1.11685239      0.18029371
H       4.99627816      0.82210554      0.26119067
