40
CN1CCN2c3ccccc3Cc3ccccc3C2C1
C       3.94543230     -1.82787300     -0.49226595
N       2.66560334     -1.27323815     -0.06114229
C       2.82299716      0.11926499      0.40564834
C       1.48193896      0.79003859      0.78595729
N       0.54701697      0.75749428     -0.36562138
C      -0.44163518      1.74641292     -0.39131590
C      -0.02057297      3.09474643     -0.29806303
C      -0.90717964      4.17369857     -0.31615811
C      -2.26296564      3.93945575     -0.44783337
C      -2.71570197      2.63011991     -0.57354104
C      -1.82875834      1.52369743     -0.54816983
C      -2.47181076      0.16699894     -0.75635963
C      -1.99016171     -0.94603353      0.14258469
C      -2.88600731     -1.58365380      1.01683366
C      -2.46019581     -2.63441698      1.82545412
C      -1.13736755     -3.05709445      1.76807675
C      -0.23788699     -2.42842003      0.90447263
C      -0.64633028     -1.36791208      0.07895318
C       0.29570842     -0.61873336     -0.85850702
C       1.67254659     -1.31157367     -1.16498812
H       4.66129689     -1.82870029      0.33705828
H       4.38428018     -1.26679944     -1.32513263
H       3.82456889     -2.87073363     -0.80540342
H       3.47448243      0.13268622      1.28765837
H       3.30891797      0.72559623     -0.37092975
H       1.03472048      0.27813416      1.64739884
H       1.71121087      1.80767997      1.11859926
H       1.04121057      3.32444206     -0.24381407
H      -0.52901390      5.18888856     -0.24041113
H      -2.96532655      4.76745864     -0.46918712
H      -3.78522722      2.46914111     -0.69837491
H      -3.55847417      0.25869866     -0.62339539
H      -2.34883961     -0.12850693     -1.80639664
H      -3.92343189     -1.26239313      1.07309710
H      -3.15877440     -3.11970888      2.50129250
H      -0.79800872     -3.87175859      2.40228727
H       0.79208275     -2.77510239      0.90442125
H      -0.18556317     -0.56063297     -1.84431414
H       2.10348103     -0.80726902     -2.04217550
H       1.49173798     -2.35409910     -1.45629315
