31
O=NN(CCCl)C(=O)NC1CCCCC1
O      -3.66926819     -2.35985807     -1.43370742
N      -2.60837808     -1.75184950     -1.26621739
N      -2.58873394     -0.89894520     -0.03735571
C      -3.77921008     -0.77555440      0.79882555
C      -4.51512603      0.55085398      0.61806901
Cl     -5.30511270      0.66948011     -0.97404462
C      -1.45118695     -0.16578757      0.29144340
O      -1.41349398      0.58119572      1.27033701
N      -0.37331767     -0.30868150     -0.55487158
C       0.90567824      0.33361549     -0.28315905
C       1.70655565     -0.46175359      0.75710751
C       3.08164868      0.15452391      1.00159844
C       3.86538352      0.31815141     -0.29706454
C       3.07432844      1.10877813     -1.33469666
C       1.70096018      0.49145689     -1.58399509
H      -4.45526071     -1.62383447      0.64701329
H      -3.44660969     -0.83838812      1.84288478
H      -5.30348397      0.64346411      1.37110498
H      -3.84761615      1.41111721      0.71705791
H      -0.35356023     -1.13590053     -1.13495558
H       0.69885925      1.33193920      0.12423294
H       1.15740051     -0.50980558      1.70498419
H       1.82786154     -1.49901509      0.41801693
H       3.64867002     -0.47427503      1.69725086
H       2.96158414      1.13373645      1.48127119
H       4.81555245      0.82449838     -0.09321044
H       4.11075188     -0.67141243     -0.70195507
H       2.95227906      2.14322752     -0.99070393
H       3.63645974      1.14895821     -2.27448398
H       1.82530214     -0.48646282     -2.06762261
H       1.14108290      1.11652719     -2.29038414
