10
C=CCO
C      -1.49072651     -0.30283545     -0.26891236
C      -0.38234851     -0.19507266      0.47522660
C       0.81218060      0.62008793      0.10597181
O       1.92821521     -0.24808411      0.00024474
H      -2.32522020     -0.91219879      0.06549708
H      -1.59492817      0.21050240     -1.21992133
H      -0.32645617     -0.72442383      1.42407224
H       1.02036305      1.36122034      0.88302932
H       0.68458107      1.14449405     -0.84623989
H       1.67433962     -0.95368990     -0.61896821
