31
CCCCCOC(=O)c1ccc(O)c(I)c1
C      -4.34886584      1.61690042     -0.64760145
C      -3.88021839      0.20054318     -0.94064582
C      -2.64975854     -0.16509159     -0.11041893
C      -2.18135747     -1.59215790     -0.41039077
C      -0.97223653     -1.99138451      0.43140523
O       0.13071355     -1.13961288      0.09557277
C       1.26470517     -1.39083445      0.79416466
O       1.40590602     -2.25805262      1.64111439
C       2.34569575     -0.45135756      0.38815528
C       3.60145282     -0.58735129      0.99779301
C       4.64865173      0.26945093      0.65359520
C       4.44418399      1.26307989     -0.29845573
O       5.51133100      2.06564248     -0.58692558
C       3.19778853      1.40885334     -0.91198941
I       2.86239042      2.89182262     -2.34256698
C       2.14623768      0.55333591     -0.57108413
H      -5.22941786      1.85735969     -1.25151191
H      -3.56643076      2.34554209     -0.88263717
H      -4.61890205      1.73043531      0.40715841
H      -4.69594540     -0.49966339     -0.72624011
H      -3.64862776      0.11220344     -2.00847723
H      -2.88644114     -0.07401827      0.95666934
H      -1.84284227      0.54613802     -0.32396722
H      -1.92021016     -1.66280016     -1.47334542
H      -2.99850085     -2.29754950     -0.22041547
H      -1.20543997     -1.89476341      1.49833854
H      -0.70538414     -3.03146029      0.21089244
H       3.76964257     -1.36208232      1.74431732
H       5.62094638      0.16150769      1.12766280
H       5.22462911      2.70713061     -1.26162610
H       1.17630441      0.66823450     -1.04856986
