25
CCOC(=O)C(O)c1ccccc1
C       3.31089461      1.22983512      0.73075440
C       2.62992778     -0.03672539      1.21117513
O       1.56577846     -0.34274993      0.30311155
C       0.83642577     -1.44172975      0.64079089
O       1.07118710     -2.17739242      1.59614097
C      -0.29096169     -1.71482099     -0.36592184
O      -1.08447776     -2.83703514      0.03672919
C      -1.20003147     -0.52084018     -0.56787531
C      -1.03262216      0.31722177     -1.68156262
C      -1.84736262      1.43752990     -1.85686857
C      -2.83619634      1.73553214     -0.92158920
C      -3.01213501      0.91460996      0.19011097
C      -2.19817609     -0.20530387      0.36783010
H       2.59693758      2.05912329      0.68924910
H       3.70260441      1.09615804     -0.28305100
H       4.13498049      1.50577604      1.39451017
H       3.35029219     -0.86214305      1.22591363
H       2.22578110      0.11945672      2.21766630
H       0.18231293     -2.00308431     -1.31160670
H      -0.52161355     -3.36489123      0.63550096
H      -0.26325866      0.10512411     -2.42081346
H      -1.71045177      2.07825724     -2.72412005
H      -3.47157793      2.60624481     -1.06005146
H      -3.78580258      1.14312162      0.91846826
H      -2.35245479     -0.84127451      1.23775715
