14
O=[N+]([O-])c1ccccc1
O       3.01839711      0.71262510     -0.35427038
N       2.31983928     -0.29551033     -0.17480011
O       2.76358267     -1.44915565     -0.08139850
C       0.86771703     -0.11053391     -0.06538466
C       0.03951253     -1.22280023      0.13779299
C      -1.34064534     -1.04061881      0.24104867
C      -1.88705628      0.24038090      0.14218794
C      -1.05928555      1.34633164     -0.06021470
C       0.32235162      1.17670373     -0.16506202
H       0.44959593     -2.22741323      0.21698917
H      -1.99194439     -1.89755567      0.39877363
H      -2.96341497      0.37749168      0.22329032
H      -1.49228270      2.34139097     -0.13622988
H       0.95363305      2.04866380     -0.32272248
