26
COP(=S)(OC)Oc1ccc([N+](=O)[O-])c(Cl)c1
C      -3.65093400      0.95913244     -1.27413157
O      -3.22488741     -0.06947793     -0.40220843
P      -1.88722505      0.17392966      0.47994154
S      -1.94578776      1.66204970      1.72352480
O      -1.66932609     -1.30027625      1.11594524
C      -2.64452143     -1.79428541      2.01296539
O      -0.75373716      0.21465247     -0.67256314
C       0.59972809      0.18899587     -0.48578021
C       1.22488534     -0.05476580      0.73709399
C       2.61979126     -0.06174446      0.81631849
C       3.37275503      0.17556383     -0.34028246
N       4.81152286      0.16688696     -0.22185879
O       5.34160574     -0.91821004      0.05013925
O       5.39686176      1.24861325     -0.35509678
C       2.76434085      0.40606115     -1.57149206
Cl      3.64109977      0.65183683     -3.03632106
C       1.36803929      0.41167460     -1.63534383
H      -2.81541854      1.33772232     -1.86885003
H      -4.10031359      1.77390282     -0.70103469
H      -4.40554282      0.55069766     -1.95119976
H      -2.58386635     -1.26114962      2.96496470
H      -2.44551129     -2.85380793      2.19330784
H      -3.64832262     -1.69398673      1.59214125
H       0.66009275     -0.24912504      1.64468433
H       3.10698596     -0.25161732      1.77104051
H       0.86768539      0.58672697     -2.58590452
