26
COP(=S)(OC)Oc1ccc([N+](=O)[O-])cc1Cl
C      -2.90120358     -2.35702408      0.88518916
O      -1.82559201     -1.43947679      0.85030791
P      -1.89629893     -0.21390680     -0.20762254
S      -1.95051199     -0.68964836     -2.08779396
O      -3.17573362      0.60349679      0.35868093
C      -3.44108854      1.88627999     -0.17494916
O      -0.67832111      0.72362405      0.28442230
C       0.65780130      0.46015734      0.15387867
C       1.16773880     -0.82796177     -0.02046350
C       2.54758896     -1.02742767     -0.13804163
C       3.41777461      0.06879793     -0.07425566
N       4.86560597     -0.14255043     -0.19509487
O       5.59744468      0.85591455     -0.15468832
O       5.26786174     -1.30656251     -0.32761206
C       2.91939417      1.36269052      0.10863968
C       1.54059321      1.54942309      0.22440438
Cl      0.95089625      3.15931139      0.44524022
H      -2.78206148     -2.99839397      1.76221762
H      -3.85789633     -1.83403269      0.96230885
H      -2.88965486     -2.98434022     -0.00953753
H      -3.82110746      1.79774335     -1.19568605
H      -4.20458706      2.36781079      0.44138529
H      -2.54102330      2.50640355     -0.16434011
H       0.52181766     -1.70075330     -0.06044656
H       2.92422458     -2.04019246     -0.27601240
H       3.58633832      2.22061770      0.16163218
