47
CC(C)CN(C)Cc1cc(C(=O)c2csc(S(N)(=O)=O)c2)ccc1O
C      -2.80693313     -1.98546277     -0.62557690
C      -3.71871073     -0.80295511     -0.96279721
C      -5.05646503     -0.95392531     -0.23227287
C      -3.07057792      0.54974517     -0.59052791
N      -1.76619114      0.79155560     -1.23709856
C      -1.91766345      1.02878407     -2.67611588
C      -1.05622421      1.92857533     -0.62012792
C      -0.53110185      1.61604714      0.76766919
C       0.30503489      0.49271301      0.93234048
C       0.87807450      0.19306811      2.17547084
C       1.74115982     -0.99998700      2.36872403
O       1.59697680     -1.66681730      3.39068425
C       2.74315913     -1.34646208      1.35568857
C       3.28927946     -2.61684258      1.28030134
S       4.43059761     -2.78460751      0.02016796
C       4.25935693     -1.14881115     -0.43418973
S       5.25484982     -0.59913654     -1.78976611
N       6.84241095     -1.07635118     -1.52931173
O       4.79274671     -1.31294606     -2.95595065
O       5.25477255      0.84339300     -1.71285587
C       3.33839724     -0.49544577      0.36272604
C       0.59950889      1.00282530      3.27965767
C      -0.22498712      2.11742193      3.13143388
C      -0.78902729      2.41283294      1.88996410
O      -1.60294951      3.50815791      1.85502915
H      -2.54590900     -1.99418522      0.43835794
H      -1.87818917     -1.94840718     -1.20351394
H      -3.30112320     -2.93472651     -0.85955280
H      -3.93348494     -0.82753244     -2.03735125
H      -4.91890090     -0.96062747      0.85440638
H      -5.55118411     -1.88891294     -0.51672016
H      -5.73155098     -0.12942544     -0.48443510
H      -2.94900236      0.55432513      0.50002307
H      -3.76438110      1.36917137     -0.82296766
H      -2.56173917      1.88991593     -2.88569730
H      -2.33029921      0.15251062     -3.18444580
H      -0.94231064      1.21039313     -3.14164307
H      -0.17018371      2.18181759     -1.21941049
H      -1.68822134      2.82331831     -0.63172418
H       0.48344659     -0.15529788      0.07517084
H       3.05634733     -3.46569853      1.91177946
H       7.44348721     -0.25200336     -1.51115336
H       7.11548140     -1.74427917     -2.25153356
H       3.11678152      0.55781470      0.22861046
H       1.01915694      0.76781943      4.25566473
H      -0.44152524      2.74998871      3.98891472
H      -2.31218981      3.34865206      1.21215956
