23
c1ccc(-c2nc3ncncc3[nH]2)cc1
C      -4.06898885      0.40822696     -0.27124099
C      -3.49163340     -0.80602126      0.09209770
C      -2.10108468     -0.92061032      0.20123572
C      -1.26914038      0.18066698     -0.05235665
C       0.19512881      0.11366758      0.04793857
N       1.03014446      1.11602867     -0.17857584
C       2.28632496      0.62003539      0.02703123
N       3.43355921      1.31119740     -0.09714494
C       4.51521846      0.56528347      0.16682609
N       4.56225169     -0.73777047      0.52474031
C       3.39662490     -1.40631964      0.64172017
C       2.23683385     -0.71139885      0.38727579
N       0.90657252     -1.01713619      0.39611107
C      -1.87061235      1.39559736     -0.41723514
C      -3.25866496      1.51039568     -0.52628905
H      -5.14911266      0.49628356     -0.35575413
H      -4.12563216     -1.66665905      0.29118097
H      -1.69708504     -1.88617481      0.48707004
H       5.47347181      1.06922398      0.08310890
H       3.43994983     -2.44859669      0.92832325
H       0.50793806     -1.91590208      0.61883327
H      -1.25051923      2.26841415     -0.62042073
H      -3.70154484      2.46156817     -0.81038258
