25
NC(CSCC(N)C(=O)O)C(=O)O
N      -1.44410731      1.63478539      1.23567209
C      -1.80240627      0.31698947      1.82409672
C      -0.76207520     -0.77283831      1.51686418
S      -0.36598417     -0.96127224     -0.27029106
C       1.21416662     -0.02893650     -0.32008226
C       1.77895197      0.03145495     -1.74675998
N       1.94181103     -1.31765103     -2.38778865
C       3.15131942      0.71860409     -1.72863196
O       3.44908024      1.69227481     -1.05658832
O       4.01284741      0.10924975     -2.58646439
C      -3.20164625     -0.13722110      1.38753977
O      -3.70321342     -1.23221732      1.58647994
O      -3.91635445      0.82970306      0.76711034
H      -1.40733681      1.51110441      0.22083434
H      -2.24957218      2.25309682      1.37175410
H      -1.86073559      0.45490070      2.91035223
H      -1.12449498     -1.74702460      1.86297515
H       0.16488737     -0.57000100      2.06459757
H       1.04787492      0.98532002      0.05571542
H       1.92780071     -0.52235308      0.34985901
H       1.13379735      0.63484049     -2.39640865
H       0.98795588     -1.66792624     -2.54789519
H       2.29045596     -1.96208508     -1.66781818
H       3.50874959     -0.64780481     -2.98160624
H      -4.77177183      0.39500734      0.56397030
