35
CC(C)C(N)C(=O)NC(C(=O)O)C(C)C
C       2.91126265     -2.45981538      0.97456358
C       2.73966635     -0.96262254      1.27294560
C       4.13782913     -0.33771492      1.37262560
C       1.84822949     -0.28231424      0.20427002
N       1.89598154      1.20257300      0.25429582
C       0.35107309     -0.67890250      0.34071870
O      -0.08674138     -1.62645157      0.98605331
N      -0.48795002      0.10942224     -0.41621122
C      -1.95063696      0.14631228     -0.22581167
C      -2.68908084     -1.09522990     -0.79809340
O      -3.79504923     -1.06908788     -1.32177996
O      -2.07131545     -2.27806520     -0.56625201
C      -2.49977856      1.50028094     -0.74974101
C      -3.90834466      1.80591960     -0.23187027
C      -2.44082335      1.63537117     -2.27420649
H       1.95577386     -2.98838145      0.94465994
H       3.40995201     -2.61423132      0.01117212
H       3.52122130     -2.93973994      1.74749225
H       2.25878889     -0.86689715      2.25537684
H       4.75928881     -0.88774130      2.08781285
H       4.64865611     -0.35090115      0.40311166
H       4.09074054      0.69716764      1.72464224
H       2.16722545     -0.59222411     -0.79874837
H       1.76994990      1.49772328      1.22562567
H       2.83687154      1.50937107      0.00164367
H      -0.02769228      0.98158894     -0.67865493
H      -2.11749270      0.10801658      0.85950365
H      -1.29101324     -2.18423182      0.02911766
H      -1.85307174      2.28952840     -0.34038428
H      -3.95202132      1.70994348      0.85787233
H      -4.66453378      1.14459433     -0.66322403
H      -4.19180525      2.83362071     -0.48409138
H      -3.12082760      0.94125508     -2.77622289
H      -2.72498473      2.64892661     -2.57795889
H      -1.42934758      1.45293700     -2.65025269
