6
O=P(=O)[O-].[Na+].[Na+]
O      -0.71740685      1.26561972     -0.19325091
P       0.04148695      0.01761306      0.61300520
O      -0.75994397     -1.24994003     -0.11809480
O       1.43586386     -0.03329274     -0.30165950
Na      0.00000000      0.00000000      0.00000000
Na      0.00000000      0.00000000      0.00000000
