28
O=C(c1ccccc1O)N1CCOCC1
O      -0.25854789     -1.62614933      1.64886653
C      -0.15580025     -0.74163108      0.79770357
C      -1.40038469     -0.04160072      0.39701282
C      -1.40700402      1.34157628      0.17098471
C      -2.59050844      1.98345887     -0.20118022
C      -3.77161371      1.25123011     -0.33061981
C      -3.77879240     -0.11927792     -0.06791650
C      -2.60162135     -0.75757375      0.31391018
O      -2.69129149     -2.09225154      0.60726489
N       1.06105484     -0.38054599      0.21405185
C       2.25553310     -1.04598177      0.74107986
C       3.53308786     -0.30979294      0.33111953
O       3.59902708     -0.13607492     -1.09261717
C       2.47321259      0.62114297     -1.55890760
C       1.15594728     -0.08386797     -1.22328564
H      -0.49827718      1.92525445      0.29302459
H      -2.59522078      3.05565813     -0.38273349
H      -4.69365115      1.75060815     -0.61869786
H      -4.70269185     -0.68662326     -0.14299556
H      -1.88772138     -2.33481819      1.11950959
H       2.19282656     -1.11282488      1.83273437
H       2.26037060     -2.06573083      0.33660996
H       4.41207645     -0.88426610      0.63940240
H       3.59048490      0.67461672      0.81071028
H       2.57199776      0.73261340     -2.64311917
H       2.50797124      1.62240352     -1.11334327
H       1.10812011     -1.05027419     -1.74096525
H       0.31141623      0.51072276     -1.57436840
