36
CCCCOC(=O)/C=C\C(=O)OCCCC
C       6.33710440      1.39984762      0.29453060
C       5.12341847      1.15824010     -0.58855349
C       4.01372254      0.43681259      0.17117234
C       2.79390526      0.19574728     -0.71262865
O       1.75613222     -0.43820085      0.04896116
C       1.78442279     -1.79145051      0.05716541
O       2.65104826     -2.51515395     -0.40600183
C       0.65995378     -2.31328045      0.85273054
C      -0.62522139     -1.96296770      0.70755032
C      -1.12761380     -1.05943152     -0.34670078
O      -0.60047599     -0.86307150     -1.42706926
O      -2.29117696     -0.52244422      0.09659756
C      -2.90839851      0.37696573     -0.83312828
C      -4.20496927      0.90859811     -0.22797830
C      -5.23401342     -0.20083559      0.00096204
C      -6.53022408      0.35314667      0.57139496
H       6.75093759      0.45451258      0.65982792
H       7.11923356      1.91759846     -0.26948905
H       6.07612575      2.01805149      1.15943671
H       4.75417490      2.12000917     -0.96312850
H       5.42482708      0.56469165     -1.45948999
H       4.38424606     -0.51957990      0.55954500
H       3.71329874      1.02038540      1.05037924
H       3.04659224     -0.39204849     -1.60347996
H       2.38974300      1.15123798     -1.06444593
H       0.94780650     -3.05482218      1.58867214
H      -1.37896637     -2.38311285      1.36374159
H      -2.23019648      1.21613330     -1.02736015
H      -3.11690575     -0.14561516     -1.77422423
H      -3.98469712      1.39155000      0.73186242
H      -4.62521127      1.67008550     -0.89511377
H      -5.44717044     -0.71059536     -0.94580166
H      -4.83388137     -0.95232025      0.69109191
H      -6.97870882      1.08292724     -0.11022593
H      -6.35688980      0.84332664      1.53472554
H      -7.25197231     -0.45493705      0.72633887
