34
CC(C)CCOCCc1ccccc1
C      -3.92701430     -0.61825539      0.13347074
C      -2.96696356      0.19691683     -0.73365726
C      -3.74645010      0.90208356     -1.84666616
C      -2.17436750      1.23489542      0.08531250
C      -1.28789326      0.64083291      1.17838056
O      -0.37778343     -0.28782297      0.59589589
C       0.47869610     -0.87998967      1.57591335
C       1.47731584     -1.81564706      0.89189299
C       2.62336365     -1.07338452      0.24214468
C       3.88975548     -1.04846526      0.84222263
C       4.94357137     -0.35632813      0.24231129
C       4.74181209      0.31862213     -0.96019119
C       3.48614317      0.30291912     -1.56387361
C       2.43211851     -0.38917225     -0.96593287
H      -4.52654453     -1.29662238     -0.48325448
H      -4.61387560      0.03250594      0.68502242
H      -3.38423292     -1.23419409      0.85687608
H      -2.26308958     -0.49665896     -1.21028994
H      -3.06969733      1.45955468     -2.50287366
H      -4.47770552      1.60643216     -1.43556084
H      -4.28553245      0.17609372     -2.46458269
H      -1.53148595      1.79442946     -0.60676473
H      -2.86213532      1.95852712      0.53970296
H      -1.89258920      0.14309645      1.94393401
H      -0.72303447      1.44784514      1.65951340
H      -0.14395370     -1.46493958      2.26273413
H       0.99621253     -0.09940884      2.14622172
H       0.97502053     -2.42436041      0.12980784
H       1.88151475     -2.51151815      1.63724026
H       4.06574631     -1.56871126      1.78063388
H       5.92263497     -0.34384368      0.71369645
H       5.56211592      0.85747369     -1.42634967
H       3.32466055      0.83071990     -2.49985770
H       1.45366696     -0.38888613     -1.44307298
