27
CC1=NNC(=O)N(/N=C/c2cccnc2)C1
C       4.47300911     -0.01888738      1.39721842
C       3.50063259     -0.11669531      0.25640495
N       3.84562158      0.31580136     -0.91952895
N       2.88690783      0.19508969     -1.89151077
C       1.52258782      0.05575473     -1.66798185
O       0.73220416      0.16541722     -2.60429613
N       1.18219960     -0.16224506     -0.31799851
N      -0.12552824     -0.38998354      0.08156526
C      -1.04152561      0.36415231     -0.43970525
C      -2.46502548      0.17747219     -0.12081714
C      -3.42331353      1.00257827     -0.70703322
C      -4.76625865      0.81114587     -0.38953013
C      -5.09616792     -0.19813856      0.50317809
N      -4.18882536     -1.01240083      1.08647358
C      -2.88854015     -0.80870545      0.75842765
C       2.18600620     -0.81362724      0.49598327
H       5.35765388      0.55176906      1.10216559
H       3.99243909      0.47935604      2.24332492
H       4.77764894     -1.02498508      1.69743036
H       3.15553167      0.48016053     -2.82761672
H      -0.80565221      1.19889655     -1.12309993
H      -3.13868870      1.78333093     -1.40661616
H      -5.53897942      1.43256609     -0.82891412
H      -6.13023572     -0.38471491      0.78011569
H      -2.18471145     -1.48192189      1.23975061
H       2.27425145     -1.86467142      0.20251994
H       1.90675851     -0.73651416      1.55114066
