18
Cc1ccccc1C(=O)O
C      -1.46691683     -1.57544824      0.42835065
C      -0.21588817     -0.79756700      0.12165672
C       0.99133425     -1.50636411     -0.02307960
C       2.18538513     -0.84395746     -0.30751153
C       2.19463608      0.53817488     -0.45239172
C       1.00795650      1.25927488     -0.31264306
C      -0.20557937      0.60687516     -0.02572737
C      -1.45671553      1.41317372      0.11683961
O      -2.57648589      1.00609013      0.36138152
O      -1.24683592      2.73280897     -0.05781437
H      -1.26315408     -2.64942034      0.50281236
H      -2.20514264     -1.44393786     -0.36886261
H      -1.88748285     -1.26180233      1.38885664
H       1.00828515     -2.58946331      0.08608091
H       3.10777438     -1.40929552     -0.41563528
H       3.12346623      1.05762649     -0.67407848
H       1.04314239      2.34012357     -0.43099339
H      -2.13777882      3.12310837      0.06275898
