29
CC(C)(C)c1cc([N+](=O)[O-])cc([N+](=O)[O-])c1O
C      -2.31465219     -0.18282541     -1.23047223
C      -1.66746338      0.16194724      0.12977123
C      -2.20459420      1.56638058      0.51351984
C      -2.18407913     -0.80269935      1.22089387
C      -0.11996224      0.09142463      0.02950851
C       0.66935540      1.23735343      0.27722835
C       2.07168428      1.19976664      0.19302495
N       2.85004828      2.41967895      0.46003381
O       4.08290666      2.34199794      0.37468939
O       2.22725059      3.44889187      0.75348785
C       2.73490814      0.01931697     -0.14079594
C       1.97794084     -1.13224220     -0.39166144
N       2.69601342     -2.36602626     -0.74188385
O       3.93181695     -2.32408345     -0.79708072
O       2.01813092     -3.38169320     -0.96261483
C       0.56665716     -1.10315869     -0.30913365
O      -0.20267754     -2.21238143     -0.54863784
H      -2.13923699     -1.21719954     -1.53813172
H      -1.92781295      0.46639825     -2.02489124
H      -3.40267950     -0.05088925     -1.19388571
H      -1.83325288      1.88798666      1.49365140
H      -3.30001802      1.56888111      0.57250127
H      -1.92498650      2.32346987     -0.22851653
H      -1.70357336     -0.59815018      2.18500598
H      -3.26664173     -0.69671261      1.36008536
H      -2.00499048     -1.85449866      0.98214600
H       0.19883067      2.18229172      0.54123302
H       3.82209687     -0.00247084     -0.20421683
H       0.34898090     -2.99075481     -0.77485828
