25
O=C(O)CC[Ge](=O)O[Ge](=O)CCC(=O)O
O      -3.85703622      2.33414900      0.07864285
C      -4.30217496      1.16506667      0.34976121
O      -5.52649893      0.75463958     -0.14776276
C      -3.48108848      0.29064474      1.18455834
C      -2.96792440     -0.88397668      0.39050439
Ge     -1.92486559     -0.43373175     -1.06941955
O      -2.56758711      0.20329862     -2.61977439
O      -0.50511238      0.97092108     -0.40733159
Ge      1.18023828      0.29201602     -1.22300598
O       1.48418270      0.53439863     -2.82506961
C       2.49056248      0.06439641      0.15420063
C       3.87615963      0.11560773     -0.43605672
C       4.89531087     -0.04760110      0.62314290
O       4.57241402     -0.21118801      1.82655721
O       6.24159120     -0.02524337      0.29497924
H      -6.06291151     -0.03023116      0.16175097
H      -2.57510708      0.86589813      1.55292120
H      -4.03305994     -0.01560978      2.08326177
H      -3.83789598     -1.45849385      0.06741146
H      -2.42216713     -1.56372741      1.10893823
H       2.35348105     -0.91938981      0.58948822
H       2.41610140      0.83446206      0.94050342
H       3.99291812      1.04558064     -0.99831956
H       3.97194468     -0.70890912     -1.20011389
H       6.58852527      0.54640406     -0.47976799
