34
CC(C)c1ccccc1C(C)C.OO
C      -1.33484567     -0.14365782      2.31093506
C      -0.50635342      0.81220207      1.44945594
C      -0.82071949      2.26956556      1.81684917
C      -0.69488681      0.48846752     -0.03195050
C      -1.80596676      1.02735714     -0.71527051
C      -2.01857474      0.78678437     -2.07165095
C      -1.12529281     -0.00235958     -2.77833126
C      -0.03344388     -0.56840734     -2.12235624
C       0.19167964     -0.36291411     -0.74434405
C       1.39361721     -1.03359498     -0.08068372
C       1.64338142     -2.47481899     -0.54780643
C       2.65149023     -0.18485574     -0.27971512
O      -0.63917216      0.12827623     -0.38277547
O       0.62687694      0.28058859      0.31592457
H      -1.15947464      0.04349474      3.37577361
H      -1.07398097     -1.18814831      2.10806420
H      -2.40797334     -0.02765432      2.12148239
H       0.54882608      0.68720333      1.71253845
H      -0.51320424      2.47469031      2.84854338
H      -1.88974281      2.49600020      1.74983478
H      -0.28186545      2.96455154      1.16354556
H      -2.53058699      1.64769529     -0.19365413
H      -2.87889278      1.22136719     -2.57298278
H      -1.27723003     -0.18437527     -3.83858024
H       0.64776186     -1.17791700     -2.71094258
H       1.20545228     -1.12496098      0.99378703
H       1.99841054     -2.52305798     -1.58231124
H       0.73127496     -3.07668162     -0.47037164
H       2.40954824     -2.94785832      0.07689891
H       2.51176658      0.82939191      0.11008766
H       3.50535083     -0.62882738      0.24323109
H       2.91447495     -0.09868141     -1.34007585
H      -1.15722723     -0.18209088      0.38404334
H       1.16952245     -0.22677394     -0.31719245
