31
Nc1nc(O)c2ncn(C3C=CC(CO)C3)c2n1
N       4.37205217     -1.93083897      0.97047741
C       3.58471451     -0.96762075      0.36935155
N       4.18585557     -0.20541918     -0.55981545
C       3.45464643      0.75299658     -1.15853385
O       4.07869615      1.52010208     -2.11191368
C       2.12393667      0.94638477     -0.80912946
N       1.16129026      1.82402747     -1.24476359
C       0.09075866      1.50762651     -0.54098188
N       0.33318422      0.48450728      0.34219087
C      -0.59834762     -0.12804672      1.27309955
C      -1.53126121      0.84637635      1.92520497
C      -2.81378951      0.56759896      1.67477531
C      -2.97955952     -0.64688284      0.80717434
C      -3.70469926     -0.34917709     -0.51002999
O      -2.94351439      0.52590154     -1.33339541
C      -1.53597784     -1.15250608      0.61069857
C       1.63846838      0.10527098      0.17306209
N       2.31636398     -0.86490083      0.80750575
H       5.34503303     -1.67512302      0.86569090
H       4.03810530     -2.12054360      1.90388260
H       3.38330220      2.13071008     -2.41945370
H      -0.87988056      1.98093991     -0.62947588
H      -0.00449030     -0.61789316      2.05447990
H      -1.19207881      1.67680942      2.53038201
H      -3.64777343      1.14780529      2.04822114
H      -3.55978904     -1.39662671      1.35902544
H      -4.67965629      0.11288199     -0.32087932
H      -3.86451079     -1.27994838     -1.06472020
H      -3.45155114      0.66328132     -2.15223135
H      -1.29255559     -1.33884222     -0.44207019
H      -1.42697225     -2.11885103      1.12138881
