34
CC(=O)OC1CCC2CCCCC2C1
C       4.99859725     -1.04440816      0.60479510
C       3.67526226     -0.96372789     -0.09263341
O       3.33488618     -1.69335350     -1.01256346
O       2.92552842      0.03275470      0.45248315
C       1.61810967      0.22577880     -0.11891210
C       1.20722192      1.67383778      0.15906153
C      -0.22248582      1.95792524     -0.29209238
C      -1.21265457      0.97562051      0.34647907
C      -2.64647035      1.25058450     -0.12474582
C      -3.63493282      0.26536230      0.49581555
C      -3.23087506     -1.18301205      0.23639087
C      -1.79836506     -1.46232940      0.68660852
C      -0.80902419     -0.48137779      0.04430976
C       0.62459147     -0.75538330      0.51360852
H       5.53806524     -0.10132605      0.48668678
H       5.59525964     -1.84517754      0.15857298
H       4.84653965     -1.27162384      1.66291807
H       1.65613122      0.08048341     -1.20673856
H       1.30886116      1.88849678      1.23107243
H       1.90165895      2.35657491     -0.34558187
H      -0.48924370      2.98670212     -0.02272712
H      -0.27850365      1.89013057     -1.38590475
H      -1.18147190      1.12736410      1.43526987
H      -2.70170227      1.17908622     -1.21843510
H      -2.93921687      2.27284480      0.14256996
H      -3.69079399      0.43909224      1.57755036
H      -4.63747613      0.44606669      0.09194355
H      -3.32424434     -1.40028293     -0.83483576
H      -3.91908350     -1.85668017      0.75926801
H      -1.74132841     -1.38995497      1.78015124
H      -1.53063639     -2.49198724      0.42143513
H      -0.84182592     -0.63484609     -1.04411449
H       0.68942412     -0.68858845      1.60794906
H       0.91019780     -1.78464631      0.26479900
