16
CCC(C#N)CC#N
C      -2.21614999     -0.31355383      0.01683728
C      -0.81248577     -0.57260957     -0.51888061
C       0.28184541      0.17705795      0.26552340
C       0.14936047      1.63459626      0.07078065
N       0.04521394      2.77623150     -0.10366524
C       1.67047143     -0.28382784     -0.20182716
C       2.72289485      0.15499501      0.72606639
N       3.54665645      0.48312793      1.47310426
H      -2.50154197      0.73716057     -0.09149722
H      -2.94510399     -0.91530263     -0.53549869
H      -2.28746003     -0.58402212      1.07515854
H      -0.62533714     -1.65220661     -0.46308465
H      -0.77903845     -0.29808007     -1.58095057
H       0.16359202     -0.05181145      1.33313917
H       1.88703201      0.08746540     -1.21130926
H       1.70005074     -1.37922051     -0.25389629
