35
CC(=O)OCCC(C)CC(C)(C)C
C       5.64357481     -0.87618512     -0.06519040
C       4.24094404     -1.01020511     -0.57350769
O       3.88680341     -1.81541560     -1.42276755
O       3.43271331     -0.10877760      0.04832136
C       2.06053114     -0.15869724     -0.37322227
C       1.29421381      0.90629494      0.40932013
C      -0.20929402      1.03176164      0.06822881
C      -0.39409843      1.44607969     -1.39080540
C      -0.96932147     -0.26055048      0.45329270
C      -2.52728518     -0.26295318      0.43680751
C      -3.08866117     -0.43374873     -0.98554094
C      -3.00002813     -1.48165588      1.26274918
C      -3.11496407      1.00484874      1.07371604
H       6.28360415     -1.60452026     -0.57139650
H       5.66944088     -1.07701360      1.00875451
H       6.02106596      0.12690210     -0.27891240
H       2.00990607      0.04115354     -1.44886715
H       1.66090398     -1.15593893     -0.16192357
H       1.78235342      1.87756661      0.25108483
H       1.40966750      0.70788544      1.48329718
H      -0.58232851      1.85225982      0.69374531
H      -0.28666408      0.59525732     -2.07095093
H      -1.37850186      1.89384287     -1.54812460
H       0.33970395      2.20659114     -1.67989024
H      -0.61856741     -1.08904059     -0.17584723
H      -0.65155310     -0.51401531      1.47501294
H      -4.17157066     -0.60477963     -0.96100115
H      -2.63266991     -1.29186999     -1.49161644
H      -2.92872724      0.44834191     -1.60777817
H      -2.66615222     -1.40946255      2.30414932
H      -2.60549848     -2.41636910      0.84818969
H      -4.09345790     -1.55710127      1.27321664
H      -2.90288049      1.89586098      0.47410360
H      -4.20485863      0.93142770      1.16516457
H      -2.70834348      1.16653537      2.07818834
