18
O=c1cc[nH]c2ccccc12
O       1.49550259      2.55815753      0.00275938
C       1.35627009      1.34024286      0.01020459
C       2.54261187      0.44916845      0.04498666
C       2.34382380     -0.87320714      0.03736992
N       1.11449226     -1.47131253     -0.01565611
C      -0.06020775     -0.70524499      0.00211140
C      -1.31822521     -1.31205658     -0.03141591
C      -2.47800725     -0.53041993     -0.04862957
C      -2.39077383      0.86303131     -0.04312302
C      -1.14221201      1.48321000     -0.02407883
C       0.01545792      0.69945499     -0.00640745
H       3.51953758      0.91004891      0.08101879
H       3.17883558     -1.56722060      0.07121733
H       1.05048771     -2.47304592      0.11996685
H      -1.40849849     -2.39460249     -0.04616661
H      -3.45371595     -1.01045941     -0.07067786
H      -3.29554368      1.46599880     -0.05818388
H      -1.06983523      2.56825674     -0.02529570
