36
CC(=O)CC(C)=NCCN=C(C)CC(C)=O
C      -2.22797591      1.46410057     -1.88943460
C      -1.36252961      2.38745525     -1.07274635
O      -0.32871856      2.87621987     -1.53219043
C      -1.78921407      2.64629829      0.34725945
C      -1.07694408      1.72758446      1.30963819
C       0.27445164      2.16986430      1.81573399
N      -1.66601278      0.61884698      1.60462600
C      -1.03033298     -0.34512830      2.50888387
C      -0.48240321     -1.54078875      1.71711559
N       0.73586710     -1.14258208      1.00466493
C       1.27176171     -1.96769475      0.17018012
C       0.72528035     -3.33469292     -0.16449954
C       2.49996836     -1.50532112     -0.57548183
C       2.20168920     -1.21385471     -2.02254109
C       1.45163522      0.05466694     -2.32895631
O       2.51824526     -2.00667788     -2.91065995
H      -2.29437565      0.48951029     -1.39791220
H      -3.22511475      1.89911338     -1.99796926
H      -1.79155289      1.33042853     -2.88355713
H      -2.87289122      2.50776988      0.43021926
H      -1.58273139      3.69141119      0.60036055
H       0.23397022      2.30443328      2.90015300
H       1.03734209      1.43198168      1.56159795
H       0.55898016      3.12422216      1.36325636
H      -1.80597088     -0.70373724      3.19460605
H      -0.24832874      0.09098828      3.13871350
H      -0.24356502     -2.34232220      2.42550054
H      -1.24860386     -1.89752439      1.01890911
H      -0.15093434     -3.22255178     -0.80871794
H       1.48156521     -3.92231695     -0.69372455
H       0.44735513     -3.87414925      0.74434749
H       2.91102107     -0.60144221     -0.11141183
H       3.26812403     -2.28338694     -0.51955183
H       1.95530681      0.90547419     -1.86216118
H       1.42723016      0.21507424     -3.41101983
H       0.42840622     -0.03127229     -1.95598193
