7
O=P[O-].O=P[O-].[Ca+2]
O      -1.26223823     -0.24250325      0.00000000
P       0.08041890      0.74783099      0.00000000
O       1.18181933     -0.50532774      0.00000000
O      -1.26372099     -0.23465319      0.00000000
P       0.08506533      0.74731680      0.00000000
O       1.17865565     -0.51266361      0.00000000
Ca      0.00000000      0.00000000      0.00000000
