22
COc1c(O)ccc(C=O)c1C
C       2.62789045      0.77589934      0.31191157
O       1.74246355      0.79262780     -0.81352141
C       0.64889086     -0.00061709     -0.55826017
C       0.70761408     -1.33997723     -0.96093981
O       1.80797083     -1.82586950     -1.60844183
C      -0.34933761     -2.20250763     -0.72314657
C      -1.49301102     -1.71351501     -0.09534885
C      -1.58078214     -0.35970118      0.27587105
C      -2.83285594      0.09164593      0.93267130
O      -3.77186386     -0.66831365      1.14103642
C      -0.51153190      0.52863714      0.03063052
C      -0.59808544      1.98720136      0.38543577
H       2.13718642      1.15841604      1.21336087
H       3.02056622     -0.23079443      0.49162764
H       3.47179299      1.43259837      0.08072817
H       2.35071309     -1.04621928     -1.83129395
H      -0.28935620     -3.24276435     -1.02922683
H      -2.32516645     -2.39006849      0.09442242
H      -2.89557355      1.14668243      1.23930602
H       0.25592608      2.56160707      0.01432959
H      -0.63343992      2.10877669      1.47271093
H      -1.49001054      2.43625567     -0.06386284
