55
CCCCCCCCCNC(=O)OCC1OC(O)C(O)C(O)C1O
C       6.59918329      3.11666727      0.34173435
C       6.77591836      1.73364582      0.94812584
C       5.62315487      0.80350985      0.56767803
C       5.81001215     -0.58778507      1.17716096
C       4.62666384     -1.52665035      0.92125064
C       4.44151966     -1.87747113     -0.55710852
C       3.39571897     -2.97254600     -0.79316350
C       1.98160758     -2.65625894     -0.29913814
C       1.37890416     -1.41067047     -0.94042081
N       0.00926890     -1.21975957     -0.52269606
C      -0.84253602     -0.40461191     -1.20497140
O      -0.61261228      0.12105409     -2.28250355
O      -1.97679256     -0.25075119     -0.48111000
C      -2.97912770      0.56308051     -1.12233071
C      -4.16554503      0.70766988     -0.16221838
O      -4.82559333     -0.57402620     -0.07012442
C      -5.93072222     -0.55586649      0.81365740
O      -6.51367193     -1.85145314      0.82278940
C      -7.00158337      0.44425458      0.36008870
O      -8.09739384      0.49036131      1.28897127
C      -6.38059028      1.83569413      0.25748268
O      -7.33673918      2.75319620     -0.29791844
C      -5.13407714      1.80992368     -0.63028766
O      -5.53886049      1.59145998     -1.98756650
H       5.67263630      3.58285909      0.69159157
H       6.56661667      3.06467910     -0.75125971
H       7.43404589      3.76471021      0.62616258
H       6.83696533      1.82501028      2.03880377
H       7.72604112      1.30869088      0.60409043
H       5.56743187      0.73110844     -0.52421888
H       4.67536174      1.23291483      0.91419837
H       6.73061088     -1.04164064      0.79050552
H       5.93872660     -0.48921812      2.26228172
H       4.79301407     -2.44965004      1.49036360
H       3.71409752     -1.06788622      1.31870272
H       5.39768059     -2.22827791     -0.96516112
H       4.17056931     -0.98413384     -1.12952142
H       3.35582984     -3.18651249     -1.86858922
H       3.73367232     -3.89711293     -0.30864679
H       1.97516930     -2.55431406      0.79263054
H       1.34019670     -3.51918740     -0.52113370
H       1.41050101     -1.48291695     -2.03339147
H       1.92821698     -0.50976140     -0.64781916
H      -0.26803533     -1.42262079      0.42699828
H      -2.55039097      1.54758372     -1.34262198
H      -3.28900878      0.06595145     -2.04894657
H      -3.78661596      0.94864276      0.83992486
H      -5.59714323     -0.34479103      1.83677849
H      -5.74749117     -2.44900792      0.87953519
H      -7.42813599      0.14566633     -0.60549992
H      -8.37224906     -0.44397996      1.39284810
H      -6.12555960      2.20803232      1.25717024
H      -8.16607142      2.58487744      0.19536125
H      -4.64017967      2.78812141     -0.60977059
H      -6.30260926      2.18949660     -2.12708900
