40
CN(C)c1ccc(C(=O)c2ccc(N(C)C)cc2)cc1
C       6.14768166      1.01467109      0.51785952
N       5.04698882      0.79429853     -0.41951731
C       5.44325302      0.40399164     -1.77217674
C       3.80970231      0.36213671      0.07352326
C       3.49776016      0.39187303      1.44555082
C       2.25203107     -0.02000639      1.94086752
C       1.25989976     -0.45584003      1.06643187
C      -0.04453178     -0.89064799      1.62502613
O      -0.07245842     -1.45108808      2.71797295
C      -1.31598647     -0.66401933      0.89378882
C      -2.33376295     -1.60713855      1.01015717
C      -3.54962629     -1.41964603      0.33685223
C      -3.80604147     -0.28263423     -0.45192416
N      -5.01326556     -0.10946779     -1.13988440
C      -5.35812418      1.22149703     -1.63833905
C      -6.14893961     -0.96935001     -0.80867235
C      -2.75726098      0.65272512     -0.53917885
C      -1.53483863      0.47851379      0.12764500
C       1.53353192     -0.50638371     -0.29842092
C       2.78527753     -0.09220332     -0.77890323
H       5.89941872      1.79505368      1.24525225
H       7.04638628      1.36599684     -0.00166943
H       6.40913805      0.08936888      1.04299399
H       5.46600449     -0.68639730     -1.87707163
H       6.44290790      0.77967528     -2.01827961
H       4.76978081      0.83293886     -2.52175062
H       4.22167204      0.73517106      2.17840208
H       2.06417983      0.00776131      3.01225523
H      -2.18911346     -2.49659487      1.61997906
H      -4.29544955     -2.19969871      0.45618309
H      -4.64342211      1.55808985     -2.39685856
H      -5.39959904      1.94997615     -0.82101586
H      -6.33770261      1.22112684     -2.12969172
H      -7.02000483     -0.73279960     -1.43022582
H      -6.44572805     -0.84401545      0.23847942
H      -5.91987017     -2.02238189     -1.00448476
H      -2.86325312      1.55503842     -1.13411422
H      -0.77734841      1.25319946      0.04250474
H       0.79654546     -0.87436348     -1.00739285
H       2.93416787     -0.13842683     -1.85364418
