31
CCCCC(CC)COS(=O)(=O)[O-].[Na+]
C       3.37401662      1.67734294      0.92885604
C       2.79063878      0.73716025     -0.11397518
C       1.35323393      0.34127674      0.22995386
C       0.77364665     -0.60250569     -0.82886474
C      -0.67859425     -1.07127178     -0.56804961
C      -0.75947545     -1.96439542      0.68556788
C      -2.08869237     -2.69434265      0.82601402
C      -1.67672141      0.09802887     -0.50581745
O      -1.54031750      0.89952021     -1.66533436
S      -2.30334905      2.34133808     -1.67229944
O      -3.68800894      2.00479334     -1.35201029
O      -2.09369221      2.82854250     -3.03140492
O      -1.60874330      3.10184200     -0.63709377
Na      0.00000000      0.00000000      0.00000000
H       4.40097036      1.94730254      0.66356848
H       2.78745818      2.59905042      0.99789747
H       3.39100129      1.20569626      1.91656969
H       3.41813883     -0.15917590     -0.18102472
H       2.81762882      1.22703180     -1.09429994
H       1.33989768     -0.14144038      1.21322395
H       0.74225369      1.24755985      0.30249163
H       0.82008676     -0.11030477     -1.80872867
H       1.41786572     -1.48791506     -0.90919152
H      -0.94917071     -1.68433814     -1.43946659
H       0.03734596     -2.71715152      0.64406976
H      -0.58881874     -1.37027211      1.59066117
H      -2.31767581     -3.27210998     -0.07488923
H      -2.04650887     -3.38890002      1.67134622
H      -2.91227780     -1.99933553      1.01262011
H      -1.51096599      0.69381681      0.39869674
H      -2.70117089     -0.28684368     -0.47390305
