21
CCC(N)(CO)CO
C       2.03558369      0.74437904     -0.39424757
C       1.15558350      0.04534504      0.63523346
C      -0.27459782     -0.29642532      0.14950725
N      -1.00933867     -0.94651690      1.27787986
C      -0.25077069     -1.30083351     -1.02632906
O      -1.56624198     -1.81034139     -1.25534418
C      -1.07872240      0.96709152     -0.25665521
O      -1.11195976      1.90200545      0.82585138
H       1.62568410      1.71677927     -0.68110384
H       3.03111934      0.91936811      0.02721273
H       2.16112038      0.13793944     -1.29562820
H       1.66657223     -0.87677694      0.94349527
H       1.10812471      0.67801633      1.53114681
H      -0.38117198     -1.58482972      1.76686338
H      -1.21556317     -0.20121794      1.95317566
H       0.39885669     -2.15500762     -0.80560109
H       0.09538556     -0.83551231     -1.95421725
H      -1.94161701     -1.90291485     -0.35271666
H      -2.11423772      0.71193546     -0.51060885
H      -0.63308685      1.46253423     -1.12515262
H      -1.70072215      2.62498264      0.54723874
