22
O=C(O)CNC(=O)c1ccccc1
O       4.20465859     -1.33308438     -2.17957308
C       3.14179731     -0.90086063     -1.76332885
O       2.44706199      0.00345776     -2.49412348
C       2.48157428     -1.25834204     -0.44197101
N       1.19301589     -0.60444683     -0.28212699
C       0.45567443     -0.76846532      0.86640793
O       0.81524254     -1.49299954      1.78753589
C      -0.80831617      0.01329053      0.96647253
C      -1.30403524      0.31220685      2.24223335
C      -2.48512582      1.04252366      2.38495365
C      -3.18075434      1.46948413      1.25468203
C      -2.70191061      1.16163080     -0.01870697
C      -1.51953349      0.43161274     -0.16611572
H       3.00482467      0.12387070     -3.29289068
H       2.32359946     -2.33978724     -0.39772443
H       3.13212041     -0.93724147      0.37700189
H       0.97602822      0.13220517     -0.94347983
H      -0.76846921     -0.02295463      3.12852211
H      -2.86287896      1.27368502      3.37786060
H      -4.10280037      2.03492248      1.36693033
H      -3.25604515      1.48265706     -0.89750792
H      -1.18572842      0.17663518     -1.16739942
