30
CC1=C/C(=N\Nc2ccccc2[N+](=O)[O-])C(=O)C=C1
C       4.20226314     -1.65565837     -0.44976836
C       3.43423740     -0.42119132     -0.07019423
C       2.09279223     -0.38489314     -0.09770660
C       1.35339915      0.85511148      0.28167697
N       0.06313712      0.99758859      0.35626768
N      -0.71385638     -0.09607402      0.11260556
C      -2.12378262      0.09464593      0.10599989
C      -2.66585373      1.38034571     -0.07584863
C      -4.04636484      1.59009725     -0.16809412
C      -4.92528124      0.51325791     -0.10630880
C      -4.42440930     -0.77813905      0.04005119
C      -3.03469697     -0.98350147      0.13470167
N      -2.55878575     -2.36238286      0.27366851
O      -3.29768004     -3.27233880     -0.12971448
O      -1.44514807     -2.54512113      0.79411152
C       2.20862200      2.08379219      0.60464419
O       1.71149024      3.17706736      0.83554492
C       3.67530555      1.90905692      0.63834630
C       4.21948393      0.72910296      0.32446196
H       4.86305097     -1.45164830     -1.29927074
H       4.81305716     -2.00236952      0.39085072
H       3.53861787     -2.47838016     -0.73740993
H       1.50950508     -1.24377377     -0.40466137
H      -0.46467455     -0.95863306      0.61569008
H      -2.00345572      2.24262299     -0.14449216
H      -4.42786218      2.60087295     -0.29524160
H      -5.99724847      0.68025799     -0.18123775
H      -5.12151075     -1.61312398      0.07579542
H       4.26381068      2.77284302      0.91995905
H       5.30183812      0.62056569      0.35344248
