24
CC(=O)NC(CCC(=O)O)C(=O)O
C      -0.70214743      3.06320186     -0.87347511
C      -0.40620697      1.80434684     -0.10515476
O       0.09183142      1.82089149      1.01852867
N      -0.70314277      0.64199747     -0.76393016
C      -0.60518376     -0.68370279     -0.14222040
C       0.78154327     -1.30985176     -0.33823807
C       1.90035645     -0.65539747      0.46871217
C       1.73907710     -0.89416727      1.94799393
O       2.08395988     -1.93070508      2.49758867
O       1.14232866      0.11192623      2.61579085
C      -1.66800075     -1.56371637     -0.80307404
O      -2.26876125     -1.30042927     -1.83559778
O      -1.90648452     -2.70761403     -0.13651701
H       0.23697224      3.58267216     -1.08167207
H      -1.20311781      2.85203066     -1.82210660
H      -1.35397468      3.70284204     -0.27238740
H      -1.20473993      0.68442105     -1.64866259
H      -0.86887544     -0.58671163      0.91635708
H       1.05056537     -1.26946820     -1.40201634
H       0.74029169     -2.37492623     -0.07520263
H       2.86054635     -1.10357131      0.18247429
H       2.01345395      0.41004466      0.25415307
H       0.85005891      0.87396359      2.05276417
H      -2.60034997     -3.16807665     -0.65410794
