17
OCCSCCO
O      -0.91790009     -0.53048671      1.56549724
C      -1.81170721      0.16961388      0.69918878
C      -1.06021158      1.11162073     -0.24074071
S      -0.26443772      0.28084575     -1.66557566
C       0.94642268     -0.82435272     -0.85030213
C       2.03915193     -0.11379082     -0.04948071
O       1.59967417      0.39315563      1.20504684
H      -1.47669056     -1.06813582      2.15723553
H      -2.41737226     -0.55720072      0.14786820
H      -2.48026338      0.75874887      1.33595043
H      -1.78171523      1.81188241     -0.67519775
H      -0.31681210      1.70891953      0.29293699
H       1.42768824     -1.37892840     -1.66336235
H       0.41306420     -1.55980116     -0.24277666
H       2.83860708     -0.83029988      0.16715795
H       2.48507056      0.70814018     -0.61893320
H       0.77743127     -0.07993075      1.45738145
