48
C=C[C@H]1CN2CCC1C[C@H]2[C@H](O)c1ccnc2ccc(OC)cc12
C       4.36213220      2.14853803      0.96261140
C       4.04382357      0.88746417      0.64260677
C       2.64129777      0.42985033      0.31526753
C       2.55432776     -0.25530829     -1.07432150
N       2.02149934     -1.64386992     -1.00370561
C       2.92875141     -2.40174353     -0.10030462
C       2.85382521     -1.87579675      1.34316233
C       2.07099037     -0.55006938      1.37014032
C       0.61986811     -0.84894679      0.93448485
C       0.64876774     -1.65623050     -0.37855669
C      -0.51470976     -1.43514322     -1.40849041
O      -0.09622597     -1.99355503     -2.67230328
C      -1.05286638     -0.03218604     -1.62778295
C      -0.55704784      0.73999413     -2.68660910
C      -1.03974717      2.01859875     -2.87410674
N      -1.97664855      2.58545206     -2.09235473
C      -2.48699686      1.85400379     -1.09177357
C      -3.46904701      2.43972205     -0.30630659
C      -4.07382613      1.76611970      0.75929920
C      -3.69231263      0.46602874      1.05250574
O      -4.18940181     -0.31509234      2.05758472
C      -5.22513290      0.24653035      2.85504229
C      -2.70397093     -0.14072057      0.27251281
C      -2.07403905      0.53104297     -0.80697465
H       5.38900484      2.42323126      1.18489126
H       3.61369773      2.93373973      1.01278536
H       4.83934087      0.14575359      0.60572753
H       1.98799782      1.31399594      0.28866841
H       1.92807066      0.34696742     -1.73640905
H       3.53352426     -0.27830365     -1.57112825
H       3.95927795     -2.34402004     -0.47344659
H       2.67181253     -3.46808413     -0.12327547
H       3.86351826     -1.74412430      1.74718499
H       2.35075029     -2.61209489      1.98222814
H       2.08353427     -0.10849684      2.37281889
H       0.08951062      0.10076180      0.83520973
H       0.10760311     -1.42787804      1.71236072
H       0.49797963     -2.70983616     -0.09205437
H      -1.35339901     -2.07525411     -1.11304500
H       0.86756425     -2.14411804     -2.56503432
H       0.19110328      0.34801789     -3.36887398
H      -0.67448708      2.64013766     -3.68648206
H      -3.77781475      3.45822453     -0.53334398
H      -4.83406551      2.28972497      1.32842142
H      -6.10580593      0.48398302      2.24908512
H      -5.52179881     -0.50384073      3.59418202
H      -4.86941085      1.12770786      3.39909268
H      -2.43081893     -1.16087742      0.52848162
