23
Clc1ccc(Oc2ccc(Cl)cc2Cl)cc1
Cl      5.25247672      0.82804053      0.03041467
C       3.66054596      0.21591916      0.25600024
C       2.71769643      0.34749833     -0.76345124
C       1.42455795     -0.14862281     -0.58193738
C       1.07973876     -0.76018246      0.62704166
O      -0.16470391     -1.29914383      0.86433194
C      -1.25440071     -0.53489530      0.50925563
C      -1.42269142      0.75391556      1.02975471
C      -2.55495355      1.49710278      0.69159100
C      -3.52038509      0.94540313     -0.15076485
Cl     -4.91397545      1.86582787     -0.56429919
C      -3.37053044     -0.34497118     -0.65597017
C      -2.23859126     -1.08842017     -0.31834764
Cl     -2.07957826     -2.68375361     -0.95713890
C       2.03277645     -0.91103588      1.63608182
C       3.32496315     -0.41464879      1.45368604
H       2.98483265      0.82596413     -1.70199285
H       0.70355467     -0.06450097     -1.39022752
H      -0.68106448      1.17946893      1.70118687
H      -2.68106746      2.50013326      1.09211439
H      -4.13120689     -0.76952526     -1.30542642
H       1.76902274     -1.41232181      2.56374968
H       4.06298344     -0.52725162      2.24331486
