22
N[C@@H](Cc1cnc[nH]1)C(=O)O.[Cl-].[H+]
N      -0.71899367      0.35958066     -1.68074604
C      -1.11354085     -0.13685869     -0.40168989
C      -0.31097990      0.46443770      0.73154334
C       1.13598696      0.16936675      0.58566502
C       2.13390466      0.56542725      1.43644929
N       3.30376958      0.10100126      0.96020755
C       3.03437515     -0.57094891     -0.16600590
N       1.69988630     -0.53482097     -0.40602338
C      -2.56962731      0.04895733     -0.20565763
O      -3.27574033      0.58096045     -1.10150302
O      -3.22629009     -0.34394369      0.95171580
Cl      0.00000000      0.00000000      0.00000000
H       0.00000000      0.00000000      0.00000000
H      -1.19969969      1.25465130     -1.91233379
H      -0.75948799     -0.33842025     -2.45283460
H      -0.92788888     -1.23306747     -0.38744212
H      -0.68744540      0.19323406      1.71555558
H      -0.41120276      1.57644622      0.62645030
H       2.05366888      1.15238038      2.34988710
H       3.72815518     -1.08091526     -0.82059151
H       1.19659325     -0.97308809     -1.21354993
H      -3.08544309     -1.25438004      1.39090382
