46
CCN(CCO)C(=O)c1cc2ccccn2c1-c1cccc(C)c1
C       1.97286207      2.04167601      0.59920625
C       2.69454694      0.75866508      0.21664281
N       2.30678266      0.28027413     -1.11348100
C       2.92164094      0.94670408     -2.26971485
C       3.82357469      0.00006598     -3.06602878
O       4.88491604     -0.47651156     -2.23898840
C       1.21012513     -0.55166220     -1.37070356
O       0.81755268     -0.77253375     -2.51494045
C       0.56657162     -1.19384554     -0.23138990
C       1.10658584     -2.23286042      0.57872570
C       0.16086482     -2.56150280      1.52001031
C       0.12582448     -3.50447171      2.58797207
C      -0.98745104     -3.62322680      3.33507018
C      -2.16463338     -2.81483314      3.07473552
C      -2.13207050     -1.92162525      2.07233247
N      -0.97190342     -1.78115517      1.29945359
C      -0.72041371     -0.92241749      0.23364127
C      -1.68806359      0.06323843     -0.25805401
C      -2.21772556     -0.05055944     -1.54662932
C      -3.12961946      0.89304529     -2.01982497
C      -3.52322840      1.95506537     -1.20645470
C      -3.00728979      2.08470284      0.08799759
C      -3.40698017      3.25029068      0.94267821
C      -2.08035321      1.14014254      0.54973192
H       2.28991858      2.37238927      1.59312416
H       0.88987621      1.89717402      0.61783570
H       2.18775327      2.84547471     -0.11163675
H       3.77854312      0.91851037      0.21834815
H       2.49326872     -0.00137984      0.97341936
H       3.51493249      1.79531608     -1.91160837
H       2.12946517      1.33989555     -2.91686033
H       4.26972638      0.53001770     -3.91295345
H       3.27755186     -0.86497316     -3.45370213
H       4.45138543     -0.94730115     -1.50441191
H       2.08253891     -2.68854139      0.47397687
H       0.99680075     -4.12055477      2.78736622
H      -1.03368452     -4.33712904      4.15127119
H      -3.04666655     -2.95403653      3.68925538
H      -2.98194506     -1.29886084      1.82451405
H      -1.91657499     -0.87246055     -2.19400655
H      -3.52733129      0.80079090     -3.02691886
H      -4.23027355      2.68646251     -1.59180919
H      -2.89139443      4.15528147      0.60522701
H      -3.15309261      3.07831537      1.99454306
H      -4.48912174      3.41120713      0.88786395
H      -1.65379182      1.24773706      1.54517445
