22
NCCNCCS(=O)(=O)[O-].[Na+]
N      -3.17664939      0.89192870     -0.51111367
C      -2.92095509     -0.31895068      0.28218128
C      -1.47648527     -0.35473601      0.82153848
N      -0.51314809     -0.04984312     -0.24861844
C       0.86853690     -0.09248503      0.28704935
C       1.88712392      0.20544978     -0.80270715
S       3.54886786      0.03085007     -0.19108518
O       3.61673876     -1.37377159      0.20837551
O       4.36479101      0.37408535     -1.35409695
O       3.61614635      0.98906506      0.90981093
Na      0.00000000      0.00000000      0.00000000
H      -2.37083127      0.97361273     -1.14469241
H      -3.04587522      1.69731360      0.10298163
H      -3.63313183     -0.37192360      1.11204493
H      -3.09486318     -1.19085712     -0.35838203
H      -1.28115444     -1.34354391      1.25249911
H      -1.38185802      0.39092059      1.62035829
H      -0.58977406     -0.76155888     -0.97664375
H       1.05715543     -1.08262223      0.71859939
H       0.96693570      0.64381933      1.09340742
H       1.78111998     -0.48611456     -1.64583136
H       1.77730994      1.22936154     -1.17567536
