19
CC(C)C(N)C(=O)O
C      -1.75100345     -0.93342927     -0.25890744
C      -0.80275007      0.25648411     -0.08285406
C      -0.69510929      0.62234915      1.40138758
C       0.56288649      0.00450484     -0.75865973
N       1.40244185      1.24564356     -0.74135666
C       1.36834465     -1.12014591     -0.07573548
O       1.12267517     -2.31293585     -0.14665837
O       2.40599768     -0.61078384      0.64113861
H      -1.82984813     -1.21759082     -1.31341719
H      -2.75676813     -0.67615983      0.09116561
H      -1.41934444     -1.80794631      0.30920164
H      -1.27307108      1.10811002     -0.59412032
H      -1.68530291      0.84733734      1.81280746
H      -0.27116790     -0.19779679      1.98997190
H      -0.07058680      1.50860778      1.55091513
H       0.42280471     -0.27673882     -1.80895402
H       2.09542991      1.16012665     -1.49404076
H       0.81264635      2.03018130     -1.03387876
H       2.36172537      0.37018268      0.51199488
