12
O=c1cc[nH]c(=O)[nH]1
O       2.54089664     -0.68375840     -0.05818576
C       1.35963413     -0.35936761     -0.03069899
C       0.29150244     -1.37755429     -0.09366020
C      -0.98083642     -0.97490557     -0.06048906
N      -1.29407502      0.35211743      0.02989412
C      -0.35811418      1.35014020      0.09214963
O      -0.67400000      2.53215196      0.17283523
N       0.94473183      0.93958126      0.05830028
H       0.58896310     -2.41479600     -0.16456356
H      -1.81138510     -1.67210959     -0.10311787
H      -2.26141317      0.65497628      0.05489490
H       1.65409575      1.65352433      0.10264125
