23
Clc1cc(Cl)c(Oc2ccccc2)c(Cl)c1Cl
Cl     -4.66278424      1.65322450     -2.00789568
C      -3.38690762      0.99394477     -1.04206814
C      -2.77968933     -0.17462623     -1.50927055
C      -1.74320637     -0.76026330     -0.78530441
Cl     -1.06941571     -2.23164734     -1.38593036
C      -1.29443674     -0.16701408      0.40094664
O      -0.29515541     -0.75680274      1.14283982
C       1.00646270     -0.57889586      0.71994661
C       1.46415561      0.51027456     -0.02695651
C       2.81228698      0.59156209     -0.38499405
C       3.70404986     -0.40603655      0.00780384
C       3.25223240     -1.48501751      0.76525828
C       1.90667403     -1.56792127      1.12479939
C      -1.92452170      0.99039671      0.89120407
Cl     -1.38311977      1.66866647      2.39684805
C      -2.97019775      1.58316709      0.16234444
Cl     -3.74296850      3.02822081      0.73888927
H      -3.12152330     -0.63340414     -2.43514094
H       0.80164772      1.31366311     -0.33055801
H       3.16942028      1.43826118     -0.96602762
H       4.75261914     -0.33912794     -0.27126821
H       3.94664649     -2.26063022      1.07748987
H       1.55773124     -2.40999411      1.71704419
