21
Cc1ccc(C(N)=O)cc1N
C      -2.79263580     -0.90617412      0.25460712
C      -1.37837072     -0.51280080     -0.07554777
C      -0.37456614     -1.49611187     -0.05075363
C       0.95568359     -1.16686911     -0.31509493
C       1.29918784      0.15866971     -0.58726730
C       2.70241580      0.57288666     -0.84754018
N       3.69625462     -0.20990525     -0.32685357
O       2.96996351      1.59119919     -1.47241537
C       0.29933991      1.13768091     -0.63329045
C      -1.04659761      0.80852985     -0.42777787
N      -1.99314450      1.84338845     -0.36662463
H      -3.17823127     -0.29278254      1.07539791
H      -3.43326715     -0.78561703     -0.62481008
H      -2.85617194     -1.95238954      0.57234549
H      -0.62577531     -2.52919399      0.18143500
H       1.70322992     -1.95413029     -0.31314376
H       3.51914015     -0.85808265      0.42686409
H       4.63181628      0.17004896     -0.39880377
H       0.57916302      2.17008186     -0.83397790
H      -2.94363235      1.54808423     -0.56193259
H      -1.73380186      2.66348736     -0.90773751
