22
OC[P+](CO)(CO)CO.[Cl-]
O       1.86361848     -1.73637480      0.15594598
C       1.67186802     -0.50140281     -0.52157698
P       0.03732650      0.03040885     -0.15844780
C      -0.09668418      0.43610735      1.54370988
O       0.39179475     -0.69439228      2.26146004
C      -0.33373282      1.44653366     -1.13087939
O       0.64406754      2.42140467     -0.80108506
C      -1.09081086     -1.25024537     -0.57340451
O      -2.39164647     -0.69743687     -0.42685233
Cl      0.00000000      0.00000000      0.00000000
H       1.55671715     -1.58797546      1.07742901
H       2.42944818      0.20801556     -0.17806460
H       1.81763655     -0.67405874     -1.59095030
H       0.51710859      1.30086041      1.80906117
H      -1.13105813      0.62750245      1.84138802
H       0.24667918     -0.50075056      3.20555321
H      -1.32363221      1.85206493     -0.90544278
H      -0.26977307      1.23131329     -2.20092901
H       0.44397884      3.21230419     -1.33209600
H      -0.99510094     -2.11406310      0.08996546
H      -0.96806732     -1.57983264     -1.60857865
H      -3.01973776     -1.42998273     -0.55620536
