51
COCCNC(=O)c1cccc(Nc2ncc3cc(-c4ccncc4)ccc3n2)c1
C      -9.31478858      1.72345757      1.53348993
O      -8.30064661      1.16840988      0.70479558
C      -8.51528105     -0.23053492      0.47777458
C      -7.42208900     -0.75677480     -0.44949403
N      -6.10252906     -0.54053351      0.11793733
C      -5.00508506     -1.21559071     -0.37196382
O      -5.08231868     -2.12552864     -1.18975813
C      -3.67524638     -0.76377556      0.12336589
C      -3.51790458     -0.14639816      1.36682006
C      -2.24793019      0.24747576      1.78169327
C      -1.13594046      0.01978942      0.96240283
C      -1.26337452     -0.60737483     -0.28098225
N      -0.18927213     -0.87102692     -1.13691378
C       1.18738664     -0.68598341     -1.05456445
N       1.87056382     -1.07686677     -2.14210677
C       3.20798287     -0.92691216     -2.11171661
C       3.90084855     -0.40228298     -1.03575083
C       5.30355575     -0.24766547     -1.00187540
C       5.93891594      0.28476543      0.12797624
C       7.39926193      0.44493873      0.17619018
C       8.08099625      1.17177213     -0.80717608
C       9.45890443      1.29568724     -0.71735913
N      10.19909468      0.74959424      0.26931218
C       9.53108833      0.05091339      1.20937580
C       8.15592529     -0.12465960      1.20726994
C       5.13191300      0.65682716      1.21072863
C       3.73952987      0.50070971      1.15882570
C       3.10430687     -0.02836051      0.04395121
N       1.77190449     -0.16464372      0.03475180
C      -2.55080161     -0.99866355     -0.68321527
H     -10.29464665      1.62643730      1.05640057
H      -9.09925025      2.78638886      1.67490076
H      -9.32072488      1.23306277      2.51184451
H      -9.49596343     -0.38171086      0.01369727
H      -8.48415699     -0.76029363      1.43693527
H      -7.56572981     -1.82442599     -0.64566347
H      -7.44246826     -0.22260868     -1.40603793
H      -5.96117777      0.37331410      0.53254851
H      -4.36240335      0.01081184      2.03110073
H      -2.11362715      0.72613900      2.74868265
H      -0.16489081      0.34366861      1.32534238
H      -0.40492838     -1.30550285     -2.02263349
H       3.72057917     -1.25472993     -3.01162560
H       5.89823862     -0.56017763     -1.85878020
H       7.55210263      1.64892692     -1.62618162
H      10.01890708      1.85779793     -1.45893086
H      10.14897587     -0.38150848      1.99095908
H       7.68892851     -0.70860485      1.99414967
H       5.57650576      1.08595336      2.10714671
H       3.13732779      0.80158968      2.01310735
H      -2.69056851     -1.49529194     -1.64199433
