30
COP(=O)(Oc1cc(Cl)c(Br)cc1Cl)c1ccccc1
C      -1.45173986      3.44688658      1.88385698
O      -1.69815237      2.08290457      1.60594919
P      -0.88851696      1.43134059      0.36071735
O      -0.91695761      2.32585147     -0.84979007
O       0.59835301      1.29251133      0.99671069
C       1.59307129      0.60518079      0.35457955
C       1.94291230      0.91013926     -0.96095427
C       2.96623975      0.19706163     -1.59500059
Cl      3.33899864      0.62127852     -3.22747521
C       3.64505080     -0.81456349     -0.90404742
Br      5.04289093     -1.83261480     -1.68941896
C       3.30408650     -1.10633263      0.42043942
C       2.28293013     -0.39299083      1.04866805
Cl      1.88608130     -0.78311379      2.68202777
C      -1.51367937     -0.21517959      0.19010303
C      -1.72179012     -1.03065427      1.31195444
C      -2.18975150     -2.33675221      1.16419820
C      -2.45690670     -2.84117935     -0.10704846
C      -2.25841845     -2.04121890     -1.23069307
C      -1.78949081     -0.73542142     -1.08283856
H      -1.96590716      3.71375404      2.81054571
H      -0.38051119      3.62481753      2.01079584
H      -1.83961765      4.06951479      1.07341398
H       1.43557121      1.70921389     -1.49683778
H       3.83039298     -1.88743726      0.96417760
H      -1.51533343     -0.64457634      2.30879505
H      -2.34686268     -2.96038118      2.04088196
H      -2.82339419     -3.85826785     -0.22200568
H      -2.47077781     -2.43396174     -2.22211795
H      -1.63877097     -0.11580936     -1.96585973
