54
CCCCCCCCCCOc1ccc(C(CC)=NO)c(O)c1
C      -8.45073868     -0.52149944      0.00190822
C      -7.18821535      0.27231820      0.30678818
C      -6.10025195     -0.61367407      0.91102491
C      -4.82178092      0.18169397      1.18147049
C      -3.74045624     -0.69823998      1.80926769
C      -2.46598910      0.06867304      2.17840009
C      -1.75527704      0.77398079      1.02128225
C      -1.24897153     -0.18648984     -0.05680805
C      -0.55993223      0.57492809     -1.19331637
C       0.01446041     -0.36996803     -2.25295590
O       0.99002129     -1.25895673     -1.71501885
C       2.21737854     -0.73555076     -1.42024288
C       2.86874275     -1.32869915     -0.33194877
C       4.13324407     -0.88818459      0.05966263
C       4.74987978      0.15033344     -0.64007227
C       6.13999913      0.54408206     -0.29561022
C       7.20852919     -0.52820233     -0.44066168
C       7.64892221     -1.09340930      0.90028197
N       6.51970778      1.73833980      0.05336131
O       5.45541411      2.64400421      0.14722082
C       4.09573314      0.74185318     -1.72539399
O       4.64248225      1.79232720     -2.41432333
C       2.84386460      0.28841534     -2.13202192
H      -9.22309593      0.14153482     -0.40420773
H      -8.25043142     -1.30515591     -0.73727111
H      -8.84794388     -0.99111842      0.90845351
H      -6.82438485      0.73363308     -0.61873236
H      -7.43436505      1.08474241      1.00109169
H      -5.87878735     -1.44212134      0.22698388
H      -6.46624884     -1.05419976      1.84628504
H      -4.46352541      0.60235144      0.23638359
H      -5.04604860      1.02139170      1.85084185
H      -4.13892461     -1.15203183      2.72476298
H      -3.50010123     -1.52907567      1.13591593
H      -2.71711836      0.81954164      2.93640636
H      -1.76647326     -0.62739223      2.65441980
H      -2.41620684      1.52543628      0.57744135
H      -0.89752042      1.32070954      1.43330258
H      -0.55030303     -0.89982770      0.40026204
H      -2.07954291     -0.76577015     -0.47428808
H      -1.28560958      1.24664220     -1.67718277
H       0.23927357      1.20110085     -0.77731641
H      -0.79420190     -0.99167057     -2.64142393
H       0.39837173      0.18008830     -3.11097763
H       2.38135637     -2.13038282      0.21829420
H       4.61313585     -1.35447819      0.91003832
H       6.84093081     -1.33711900     -1.08822291
H       8.08045587     -0.08198066     -0.94635437
H       8.03957671     -0.31555280      1.56618790
H       6.82750356     -1.59717557      1.41068894
H       8.44017641     -1.83721431      0.74833373
H       5.88806744      3.43910562      0.53005938
H       5.24535466      2.25721746     -1.79199292
H       2.38986428      0.74685061     -3.00047718
