37
Nc1ccc(N/N=C2\C=Cc3c(cccc3S(=O)(=O)[O-])C2=O)cc1.[Na+]
N       7.23852969      0.00045005     -0.89115646
C       5.86004061     -0.12814190     -0.67586720
C       4.97480244      0.81992256     -1.18891540
C       3.60875626      0.75832996     -0.88866268
C       3.09901370     -0.24086326     -0.05289007
N       1.73540769     -0.29109161      0.32278131
N       0.84882563      0.38237598     -0.46979095
C      -0.39349579      0.41267371     -0.08612693
C      -0.94586783     -0.14901763      1.16925604
C      -2.26525715     -0.28452518      1.33495229
C      -3.26087379      0.09182032      0.32015838
C      -2.83387874      0.79984975     -0.81671551
C      -3.73905663      1.23702194     -1.79860688
C      -5.09551265      0.96138711     -1.66923240
C      -5.54559444      0.24860757     -0.56211454
C      -4.63979659     -0.18210287      0.42486839
S      -5.31221769     -1.13133378      1.82547210
O      -5.02311883     -0.25056840      2.95285014
O      -4.53372598     -2.36480411      1.76192927
O      -6.72786962     -1.27901542      1.50027582
C      -1.39671131      1.09880122     -1.00444634
O      -1.01656012      1.86655531     -1.88038975
C       4.00743149     -1.12752134      0.53790157
C       5.37356700     -1.06559391      0.23595182
Na      0.00000000      0.00000000      0.00000000
H       7.46226982      0.46550931     -1.76533967
H       7.74542165     -0.87087367     -0.77629545
H       5.33246052      1.62135298     -1.82850959
H       2.93820163      1.50499120     -1.30846648
H       1.46385729     -1.23550134      0.59822588
H      -0.25811068     -0.44826645      1.94884924
H      -2.62403932     -0.70154497      2.27348017
H      -3.38326166      1.78897737     -2.66607870
H      -5.80099419      1.29341138     -2.42550552
H      -6.60611894      0.02530656     -0.46134869
H       3.66081091     -1.86999339      1.25124079
H       6.05266562     -1.75658509      0.72671903
