15
CC(N)CN
C      -1.26118184     -0.90575598     -0.86399182
C      -0.51768107     -0.04433859      0.15176913
N      -0.65391076      1.37858263     -0.20312575
C       0.96934085     -0.46119640      0.24534344
N       1.75877005      0.49173898      1.03796118
H      -2.32488745     -0.64528809     -0.89687638
H      -0.85158327     -0.78126325     -1.87266334
H      -1.18698273     -1.96580686     -0.59858897
H      -0.98135446     -0.18716189      1.13603331
H      -0.24914695      1.91616227      0.56578141
H      -1.64324103      1.62361937     -0.21529414
H       1.04402912     -1.45415539      0.70222325
H       1.40955834     -0.52500073     -0.75701961
H       1.75781592      1.37598342      0.52598465
H       2.73045529      0.18388051      1.04246364
