24
CN(C)c1cccc(S(=O)(=O)O)c1
C      -3.16679746     -0.07327322      0.20103788
N      -1.85699091      0.57507474      0.25643329
C      -1.82754454      1.96628098     -0.19793743
C      -0.70322119     -0.20541462      0.11279475
C      -0.73434402     -1.61259863      0.18476184
C       0.41842835     -2.40293699      0.05981323
C       1.65551194     -1.80511066     -0.13169005
C       1.71902718     -0.41722085     -0.19319702
S       3.28365524      0.38338098     -0.38784104
O       4.31078609     -0.49655480      0.12844254
O       3.33725000      0.92679273     -1.72546114
O       3.24145411      1.61604879      0.65337320
C       0.56534507      0.37133020     -0.06500535
H      -3.27898125     -0.81047605      1.00331250
H      -3.32668307     -0.55579410     -0.76947313
H      -3.97474371      0.65247867      0.34774050
H      -1.56829971      2.02833640     -1.26068006
H      -2.80306189      2.44839660     -0.06790291
H      -1.11967604      2.55995704      0.39014912
H      -1.66985172     -2.14201894      0.34149477
H       0.33832438     -3.48579168      0.11804619
H       2.54975037     -2.41609201     -0.22458375
H       3.92601692      1.44501436      1.33436794
H       0.68464588      1.45019105     -0.10799589
