37
COc1ccc2c3c1CCCC3CN(C(=N)N)C2
C      -4.78609211     -1.51514718     -0.11210273
O      -3.84766038     -0.49893924      0.21500241
C      -2.51720012     -0.78734464      0.04855222
C      -2.02522680     -1.99504620     -0.44962368
C      -0.65177753     -2.18550914     -0.61434316
C       0.25977478     -1.17775916     -0.27385025
C      -0.22872868      0.03623941      0.24400764
C      -1.61810919      0.23790614      0.40627661
C      -2.15971043      1.57360904      0.87509753
C      -1.11043012      2.52031012      1.45497936
C       0.16545588      2.49976460      0.62305668
C       0.76997898      1.09469452      0.66453578
C       2.03536679      1.00362049     -0.19552105
N       2.61526044     -0.34200200     -0.04882424
C       3.96748692     -0.52504358      0.00754439
N       4.65304163     -1.50929528     -0.45680400
N       4.65453140      0.42414263      0.67618222
C       1.73736355     -1.41755451     -0.52363375
H      -4.64245704     -2.40239034      0.51330475
H      -5.78715126     -1.12341301      0.09257960
H      -4.73960108     -1.76733957     -1.17656954
H      -2.68481396     -2.80798579     -0.73384524
H      -0.29656010     -3.13120318     -1.01931929
H      -2.63145519      2.06121792      0.01216804
H      -2.93557788      1.41872664      1.63442873
H      -0.87815057      2.22477049      2.48623783
H      -1.51757341      3.53667064      1.50164384
H       0.87938086      3.22693159      1.02720199
H      -0.05660586      2.80070883     -0.40878567
H       1.04440680      0.86885189      1.70572569
H       1.81312907      1.18901004     -1.25507580
H       2.73197339      1.78918503      0.11798983
H       4.04668393     -2.16425943     -0.94628710
H       5.61094002      0.10689484      0.80060252
H       4.23242893      0.63712162      1.57007783
H       2.01144913     -2.35189163     -0.01783248
H       1.88622924     -1.54825261     -1.60286192
