54
COCCC(=O)N(C)c1ccc(Nc2ncc3cc(-c4ccncc4)ccc3n2)cc1
C      10.11882131     -0.17469531     -0.79582527
O       9.43306220     -0.71930313      0.32407172
C       8.25449716      0.01708171      0.66601222
C       7.05721075     -0.49603842     -0.12674139
C       5.77206417      0.22093203      0.26034840
O       5.82833502      1.15240961      1.06514577
N       4.58694567     -0.25594314     -0.33697537
C       4.58322388     -1.46491986     -1.16630190
C       3.30128546      0.34113341     -0.05147184
C       3.17018903      1.67436997      0.34873335
C       1.91196431      2.24211797      0.60653382
C       0.73036979      1.50381737      0.47627998
N      -0.48824102      2.13430312      0.73647573
C      -1.81922248      1.73132248      0.68955177
N      -2.70050107      2.66360564      1.08569485
C      -4.00345732      2.32589183      1.05726650
C      -4.47129609      1.09121767      0.64584175
C      -5.83745292      0.73672153      0.61500500
C      -6.23822727     -0.53693283      0.18923627
C      -7.65787103     -0.91763725      0.15510354
C      -8.11643381     -2.06219899      0.81794833
C      -9.46477458     -2.37934245      0.75980904
N     -10.37949299     -1.64698273      0.09239157
C      -9.92535991     -0.54864903     -0.54454432
C      -8.59792692     -0.14853560     -0.54097518
C      -5.23624425     -1.43448116     -0.20156258
C      -3.88406683     -1.06526464     -0.16697517
C      -3.48059289      0.19372233      0.25428143
N      -2.17851864      0.50716736      0.27394551
C       0.85574222      0.17883698      0.06530941
C       2.11356615     -0.39216052     -0.19388948
H       9.48592855     -0.18676907     -1.68728843
H      11.00093684     -0.79103231     -0.98949873
H      10.44978024      0.84611232     -0.58190948
H       8.08103671     -0.14441730      1.73603345
H       8.41391813      1.09303906      0.52469258
H       6.95432238     -1.57099204      0.05853188
H       7.23602295     -0.34478062     -1.19622961
H       3.82902413     -1.38882353     -1.95632457
H       5.53609796     -1.61784948     -1.67561557
H       4.38707455     -2.33111928     -0.52688148
H       4.03219474      2.32800592      0.44281770
H       1.87530036      3.28617178      0.90960451
H      -0.44795238      3.07839386      1.09177366
H      -4.68122211      3.10810818      1.38748771
H      -6.58592875      1.45814014      0.93881741
H      -7.44089455     -2.69582040      1.38380129
H      -9.85485420     -3.25751687      1.26657429
H     -10.67988019      0.02176460     -1.07885082
H      -8.30604414      0.74298353     -1.08662629
H      -5.49628113     -2.43211217     -0.55145994
H      -3.12789796     -1.78181978     -0.48022595
H      -0.01986594     -0.45139343     -0.05616059
H       2.12158670     -1.43983906     -0.47891329
