25
COC(CC(=O)O)c1ccccc1
C      -0.82890460      2.80486960      0.72843125
O      -1.17122249      1.87869246     -0.29689392
C      -1.02919122      0.50767729      0.12166203
C      -1.88155869     -0.33855456     -0.82584115
C      -2.11145515     -1.71329063     -0.27359379
O      -2.11869165     -2.04680192      0.89966334
O      -2.38612798     -2.61270163     -1.23933606
C       0.43129997      0.08542038      0.07611734
C       0.96603075     -0.71027511      1.10060266
C       2.30096312     -1.11681257      1.06093304
C       3.11632320     -0.73498125     -0.00251487
C       2.59820582      0.05234158     -1.02848932
C       1.26360858      0.45870903     -0.99104985
H      -1.49024494      2.68121176      1.59137037
H      -0.96314349      3.81524872      0.33264732
H       0.21507977      2.68987494      1.03347759
H      -1.41634661      0.42076050      1.14555560
H      -1.41039137     -0.41173972     -1.81333408
H      -2.86331738      0.12762790     -0.97122208
H      -2.52659405     -3.45336182     -0.75562819
H       0.34244826     -1.02562084      1.93557156
H       2.70349159     -1.73405602      1.85996251
H       4.15541686     -1.05186075     -0.03221291
H       3.23271014      0.35128708     -1.85867501
H       0.87161154      1.07633559     -1.79720337
