38
Cc1ncc(C[n+]2csc(CCO)c2C)c(N)n1.Cl.[Cl-]
C      -5.70867599     -0.57829873     -0.75262691
C      -4.34292748     -0.43204910     -0.15567578
N      -4.08395954      0.55217320      0.70914898
C      -2.89349345      0.72655753      1.26786518
C      -1.81474659     -0.13821544      0.97111745
C      -0.54039019      0.14421688      1.64486874
N       0.42344962      0.80488974      0.71870629
C       0.15911975      2.09546116      0.39113118
S       1.34288232      2.47269914     -0.75092725
C       2.15445817      0.95435784     -0.77771106
C       3.34721250      0.60444971     -1.60496150
C       4.59311737      0.73720903     -0.77303258
O       5.72493111      0.40952447     -1.54889198
C       1.42971161      0.23220119      0.13159720
C       1.89938995     -1.18328804      0.44022043
C      -2.09480487     -1.13515153      0.08891088
N      -1.10016249     -2.08090598     -0.30284535
N      -3.34395385     -1.26385039     -0.45512183
Cl      0.68346935      0.00000000      0.00000000
Cl      0.00000000      0.00000000      0.00000000
H      -6.35587777      0.22650382     -0.38387766
H      -6.10271893     -1.58622553     -0.59834066
H      -5.61959812     -0.41886829     -1.86279313
H      -2.72842028      1.54780807      1.97059673
H      -0.09224202     -0.74843066      2.11450710
H      -0.72036282      0.84563032      2.48497389
H      -0.64433536      2.74287544      0.78389448
H       3.28290908     -0.47732655     -1.91591300
H       3.39237365      1.25402165     -2.51470309
H       4.54262526      0.15461547      0.13775596
H       4.74447513      1.82396293     -0.48922976
H       6.39952365      1.09854328     -1.47183296
H       2.86366263     -1.09310730      1.03537519
H       1.17286471     -1.77277068      0.98038819
H       2.17844224     -1.69940211     -0.49506926
H      -0.48149034     -1.82508819     -1.09644140
H      -0.98298870     -2.99472237      0.17306697
H      -0.68346935      0.00000000      0.00000000
