37
O=C(O)CCc1nc(-c2ccccc2)c(-c2ccccc2)o1
O       5.81338728      1.01348012     -0.80257679
C       4.79958554      0.42020171     -0.46314346
O       3.99128642     -0.19216782     -1.35255223
C       4.35612700      0.30536071      0.97332140
C       3.20058505      1.24361498      1.29449972
C       1.90616919      0.71072547      0.79693715
N       1.70539387     -0.26126167     -0.07105164
C       0.32803467     -0.32864216     -0.16834862
C      -0.33805634     -1.29892090     -1.01492145
C       0.17327551     -1.56330188     -2.29266526
C      -0.44433405     -2.50204207     -3.12199050
C      -1.57206856     -3.18989249     -2.67832928
C      -2.08202250     -2.94305216     -1.40479715
C      -1.46503579     -2.00523608     -0.57325383
C      -0.25150043      0.63911288      0.63493837
C      -1.58930325      1.13462384      0.92441160
C      -1.92922190      1.55017798      2.22041282
C      -3.21102412      2.02973248      2.50388580
C      -4.16754175      2.10166189      1.49402277
C      -3.84329060      1.69728574      0.20113167
C      -2.56093333      1.21958292     -0.08280697
O       0.77302534      1.29517598      1.27510788
H       3.15306585     -0.53558121     -0.95661621
H       4.13151721     -0.74338156      1.20027693
H       5.22019354      0.57453988      1.59382497
H       3.13315255      1.36656743      2.38173885
H       3.37280960      2.23442463      0.85862370
H       1.05329544     -1.03512291     -2.65435532
H      -0.04174872     -2.69818648     -4.11289791
H      -2.05048543     -3.92205525     -3.32404893
H      -2.95782890     -3.48440724     -1.05531817
H      -1.87065487     -1.84154444      0.42303685
H      -1.19556647      1.50131991      3.02264718
H      -3.46035431      2.34769840      3.51300884
H      -5.16436242      2.47558437      1.71392712
H      -4.58647244      1.75817406     -0.58992039
H      -2.32909788      0.92575094     -1.10468281
