23
Clc1ccc(Oc2ccccc2)cc1
Cl     -4.93398059     -1.53083979     -1.26136213
C      -3.51310954     -0.85218954     -0.56776239
C      -3.31995857     -0.91306859      0.81215504
C      -2.16687382     -0.36202839      1.37454990
C      -1.20713674      0.23233676      0.55323382
O      -0.11197947      0.78590170      1.17674117
C       1.12146111      0.54988533      0.61365612
C       1.55616337     -0.73145187      0.26507763
C       2.83336064     -0.90744563     -0.26906599
C       3.67715011      0.19111757     -0.43853370
C       3.24916762      1.46634070     -0.06736699
C       1.97281100      1.64524566      0.46674560
C      -1.41348720      0.31230916     -0.82729400
C      -2.56706455     -0.23929233     -1.38927608
H      -4.06157427     -1.38223080      1.45286231
H      -2.01403785     -0.39931876      2.44991128
H       0.91232024     -1.59386250      0.41196097
H       3.17319822     -1.90191221     -0.54656501
H       4.67287564      0.05183719     -0.85223492
H       3.91128628      2.31953555     -0.18965413
H       1.64068369      2.63603534      0.76389360
H      -0.68775881      0.80526724     -1.46860627
H      -2.72351650     -0.18217180     -2.46306585
