21
C/C=C/CCCC
C       3.81104286      0.40752862      0.42393082
C       2.49326235     -0.29620569      0.40223155
C       1.50196207     -0.00524412     -0.45416926
C       0.17925238     -0.71749814     -0.47890745
C      -0.97296038      0.24074000     -0.17077901
C      -2.32011629     -0.48127953     -0.20909505
C      -3.46918382      0.46644625      0.09592496
H       4.61896921     -0.30935419      0.24869936
H       3.87609747      1.18887350     -0.33982982
H       3.96892697      0.87219020      1.40196170
H       2.35892362     -1.08642631      1.13774810
H       1.64095756      0.78305842     -1.19168780
H       0.17163700     -1.54660965      0.23915479
H       0.04133031     -1.15740398     -1.47387311
H      -0.97786640      1.06285475     -0.89780020
H      -0.82627337      0.69023678      0.81961848
H      -2.32535711     -1.29906950      0.52090608
H      -2.47523502     -0.92784924     -1.19814430
H      -3.51206553      1.27940350     -0.63591676
H      -4.42229300     -0.07060736      0.06325562
H      -3.36101089      0.90621569      1.09253635
