21
O=C(O)c1ccc2ccccc2c1
O       3.87949093      0.75609030     -0.20929711
C       3.24570981     -0.27681880     -0.09619334
O       3.86486888     -1.46306512      0.03848851
C       1.76763984     -0.39346431     -0.08841913
C       1.12161378     -1.62559897      0.04689419
C      -0.27444685     -1.68644452      0.04872847
C      -1.04407769     -0.51980204     -0.08430077
C      -2.44729541     -0.56600773     -0.08412633
C      -3.19938017      0.60229895     -0.21727779
C      -2.55907041      1.83060867     -0.35218351
C      -1.16481999      1.89425293     -0.35433822
C      -0.39330933      0.72866274     -0.22142074
C       1.01019460      0.77736449     -0.22187296
H       4.81739008     -1.23294796      0.01617451
H       1.69263585     -2.54487097      0.15159110
H      -0.75815504     -2.65526496      0.15521072
H      -2.96703877     -1.51589518      0.02011267
H      -4.28519167      0.55217244     -0.21553729
H      -3.14396728      2.74093061     -0.45592827
H      -0.68340251      2.86415858     -0.46094965
H       1.52061134      1.73364087     -0.32685950
