37
CCCCCN(C)N=Nc1ccc(C(=O)O)cc1
C      -4.28687512      2.36964657     -0.44664471
C      -3.69406073      1.46699321      0.62354091
C      -3.17224368      0.15952968      0.02728364
C      -2.57525738     -0.74424179      1.10980195
C      -2.08310682     -2.08312320      0.55087163
N      -0.99835930     -1.96046833     -0.42312626
C      -0.76040660     -3.11518272     -1.28270138
N       0.07740115     -1.23106248      0.02959851
N       1.04690993     -1.23016515     -0.75398694
C       2.08237965     -0.43419006     -0.23685909
C       1.96330981      0.96024958     -0.16561347
C       3.01404284      1.74085907      0.32586557
C       4.20369141      1.13262210      0.74434289
C       5.29279783      1.99786485      1.25893562
O       5.25486196      3.21031776      1.35621498
O       6.38207140      1.30150061      1.62873410
C       4.33438543     -0.25924919      0.66405408
C       3.27871220     -1.03405895      0.17129379
H      -5.12644587      1.88087862     -0.95116590
H      -4.65381910      3.29833339      0.00145333
H      -3.53671576      2.62938916     -1.20040440
H      -2.87857322      1.99693264      1.12938962
H      -4.45986749      1.25314098      1.37816515
H      -3.99109778     -0.36600150     -0.47892301
H      -2.41463277      0.38531964     -0.73240686
H      -3.33922669     -0.94821930      1.87009603
H      -1.75711920     -0.22030589      1.61824706
H      -2.92251283     -2.59345277      0.06408967
H      -1.72856640     -2.72580895      1.36520930
H      -0.28933171     -3.90897142     -0.69613307
H      -0.12860912     -2.84313694     -2.13256193
H      -1.71655939     -3.46911032     -1.67961651
H       1.04236858      1.43628015     -0.49455392
H       2.89988955      2.82187394      0.37842650
H       7.00502073      1.99070753      1.94157021
H       5.25097936     -0.75147149      0.97980415
H       3.38456511     -2.11421904      0.10769530
