25
O=C(NCCO)c1cc(O)ccc1O
O       0.66679470     -0.92296690     -2.05312709
C       0.43891401     -0.37603950     -0.97596481
N       1.40434652      0.27419977     -0.24068656
C       2.80246906      0.22465483     -0.63246642
C       3.60350630      1.31672241      0.07012454
O       3.48287851      1.16272827      1.48503761
C      -0.93430273     -0.44685614     -0.40259736
C      -1.35230394      0.42412353      0.61210115
C      -2.64168595      0.31761099      1.12860568
O      -2.99739047      1.18681252      2.11766145
C      -3.53418042     -0.63686954      0.65099702
C      -3.13242152     -1.49438957     -0.37210415
C      -1.84533077     -1.39399466     -0.90018503
O      -1.54377127     -2.26491646     -1.91459492
H       1.25236598      0.41773779      0.75109643
H       2.88320314      0.32469259     -1.71966272
H       3.17251145     -0.76561111     -0.34473497
H       4.66134648      1.24763662     -0.20065597
H       3.22672968      2.30896998     -0.19818603
H       4.02842935      1.85943497      1.89042380
H      -0.70382635      1.20309203      0.99957717
H      -3.91760731      1.00837585      2.37489026
H      -4.53940232     -0.72362696      1.05124402
H      -3.81978538     -2.23888339     -0.76549684
H      -0.66148675     -2.01263790     -2.27165880
