15
Cc1c(Cl)cccc1Cl
C       2.20656188      0.04590629     -0.03419380
C       0.70086549      0.01689966     -0.03750272
C      -0.05213133      1.19839584      0.09940988
Cl      0.69645705      2.74942246      0.27038825
C      -1.45204703      1.16796120      0.11752314
C      -2.12975877     -0.04288943      0.01669832
C      -1.40547250     -1.22588177     -0.09080411
C      -0.00549425     -1.19866520     -0.10919768
Cl      0.80298306     -2.72584413     -0.20610373
H       2.59909938      0.96388350     -0.48172379
H       2.63273917     -0.76515379     -0.63219514
H       2.57875576     -0.03613258      0.99170982
H      -2.01954491      2.09069364      0.21707184
H      -3.21642531     -0.06544298      0.03291496
H      -1.93658770     -2.17315271     -0.15399524
