21
O=C(O)c1cc(Br)nn1-c1ncccc1Cl
O      -3.03681251     -1.69382812      0.41511685
C      -2.02774535     -1.08422423      0.73310578
O      -1.08985433     -1.66277460      1.51021755
C      -1.74007042      0.29408687      0.50706023
C      -2.62289481      1.35639922      0.57758414
C      -1.82573677      2.48610518      0.40322826
Br     -2.48731748      4.24186799      0.47617345
N      -0.54699867      2.19616995      0.19716330
N      -0.50526380      0.83476083      0.16684785
C       0.63649524      0.12229482     -0.33422407
N       0.38140852     -1.12348481     -0.85142732
C       1.40447444     -1.80653608     -1.40654632
C       2.69368308     -1.32017548     -1.47883352
C       2.94971336     -0.06284296     -0.94145761
C       1.91832262      0.68300001     -0.35640890
Cl      2.39181066      2.18071362      0.36135458
H      -1.40811033     -2.58445840      1.59328221
H      -3.68266903      1.30102117      0.78520374
H       1.14968772     -2.78437410     -1.80659676
H       3.48485044     -1.90574524     -1.93441580
H       3.96302742      0.33202437     -0.97197612
