36
O=C(C1CCCC1)N(O)C1CCCCC1
O      -0.94839607      0.03005743     -1.93562373
C      -0.96427254      0.59566967     -0.84120708
C      -2.27484540      0.97067820     -0.14260236
C      -2.59603794     -0.02296217      0.98812658
C      -3.98435168     -0.57785015      0.68789791
C      -4.12382081     -0.43785009     -0.81617805
C      -3.48267079      0.91357283     -1.08861334
N       0.20319604      0.95166981     -0.17479187
O       0.07626251      1.22094904      1.20785348
C       1.47505235      0.29230170     -0.50202268
C       2.68200805      1.13474502     -0.06383692
C       4.00020758      0.44808968     -0.41299277
C       4.06909057     -0.96186128      0.16647424
C       2.87424653     -1.80719788     -0.26483996
C       1.54894094     -1.13029601      0.07721040
H      -2.17433823      1.99348241      0.24029982
H      -2.58213108      0.46717030      1.96756212
H      -1.86956364     -0.84367526      1.02351289
H      -4.09868097     -1.61261422      1.02363580
H      -4.74537568      0.02772915      1.19459204
H      -5.16698357     -0.47615342     -1.14234210
H      -3.57208418     -1.23482630     -1.32799389
H      -3.23144123      1.04215993     -2.14558733
H      -4.18964869      1.70918969     -0.82090903
H       0.22776902      2.18429339      1.23025434
H       1.51042072      0.20616946     -1.59660374
H       2.64277069      2.12008636     -0.54376063
H       2.65009121      1.31400795      1.01828769
H       4.83773705      1.04391837     -0.03303134
H       4.11012790      0.40115980     -1.50340108
H       4.09914429     -0.90506202      1.26157299
H       4.99810391     -1.44676443     -0.15384001
H       2.92404934     -1.98386442     -1.34636049
H       2.92254229     -2.78826092      0.22100266
H       0.72141396     -1.73980010     -0.30499738
H       1.43146757     -1.09806153      1.16795548
