25
O=S1OC[C@@H]2[C@H](CO1)[C@]1(Cl)C(Cl)=C(Cl)C2(Cl)C1(Cl)Cl
O       3.28415796     -0.62113556      1.17794785
S       3.36764479     -0.44722886     -0.30780342
O       2.31039785     -1.44899794     -0.99380018
C       1.06680636     -1.63922498     -0.32550662
C       0.01584455     -0.70617149     -0.93152101
C       0.23281509      0.84852949     -0.73734061
C       1.47542424      1.28869268      0.04017682
O       2.64341941      0.93728552     -0.69576941
C      -1.13351408      1.29737961     -0.11300678
Cl     -1.42841191      3.02489964     -0.21636036
C      -1.22990993      0.67829619      1.26737294
Cl     -1.06203611      1.53345090      2.71838543
C      -1.41344822     -0.63684285      1.10311056
Cl     -1.53134664     -1.82948941      2.29835504
C      -1.44113063     -0.90682740     -0.38831333
Cl     -2.18729606     -2.41279643     -0.89553080
C      -2.16301907      0.39442796     -0.86667089
Cl     -3.87078081      0.56203782     -0.30041231
Cl     -2.20454545      0.62301329     -2.65041114
H       1.15027349     -1.54058666      0.76120632
H       0.77678630     -2.67919640     -0.51195526
H       0.03175468     -0.89116226     -2.01550980
H       0.33451658      1.27829041     -1.74454879
H       1.49255639      0.91197621      1.06751704
H       1.48304120      2.38138052      0.12008903
