15
FC1CC(F)(F)C(F)(F)C1(F)F
F       0.76288059      2.28014766      0.39842445
C       0.29610415      1.19206511     -0.25662591
C       1.29013644      0.03705473     -0.17125982
C       0.41802439     -1.15805233      0.18642190
F       0.53246273     -1.39718827      1.51670853
F       0.82869680     -2.27564113     -0.44677759
C      -0.99630866     -0.74644102     -0.18249235
F      -1.95524735     -1.54082794      0.32269206
F      -1.14626247     -0.73863366     -1.53685296
C      -0.99836879      0.66797771      0.34742338
F      -0.94330003      0.69203690      1.69992382
F      -2.07182482      1.38842838     -0.02973151
H       0.14117057      1.48684754     -1.30081420
H       1.78662617     -0.10917077     -1.13604711
H       2.05521028      0.22139708      0.58900732
