28
Cc1ccc(Cn2cc(F)c(=O)[nH]c2=O)cc1
C       4.41077056     -0.45114835      1.04467141
C       3.02034627      0.03088937      0.75434346
C       2.46441144     -0.13537196     -0.51843683
C       1.18181776      0.34080353     -0.79903663
C       0.43559859      1.00301657      0.18532391
C      -0.95839949      1.50125050     -0.11929582
N      -1.94153035      0.41690983     -0.15299962
C      -2.41842387     -0.10554519      1.03679319
C      -3.29004366     -1.11276747      1.05944814
F      -3.76369097     -1.63204264      2.20660068
C      -3.76677926     -1.69692077     -0.20773856
O      -4.56984396     -2.62160274     -0.25171883
N      -3.24370667     -1.12466393     -1.33801771
C      -2.33771787     -0.09279943     -1.38620488
O      -1.93470046      0.32017304     -2.47072629
C       0.99999186      1.18067218      1.45555597
C       2.28331634      0.70385939      1.73482595
H       4.51648207     -0.72643414      2.09931187
H       4.64743955     -1.34106755      0.45199765
H       5.13572391      0.33408524      0.80937197
H       3.02619881     -0.63874520     -1.30235436
H       0.76837440      0.19477435     -1.79592502
H      -0.94535655      2.03518831     -1.07733100
H      -1.27919529      2.23716328      0.62939698
H      -2.05422937      0.32959536      1.96135355
H      -3.54090125     -1.50506689     -2.22303559
H       0.44872096      1.69533361      2.23904121
H       2.70532650      0.86046173      2.72523761
