17
NNC(=O)c1cccnc1
N       3.41485596     -0.56499013     -0.18719338
N       2.01066518     -0.67009296     -0.06922052
C       1.23330437      0.46433564     -0.27707301
O       1.70983249      1.54464220     -0.61562240
C      -0.22208825      0.32765189     -0.03836279
C      -0.90390273     -0.89129226     -0.08585623
C      -2.27829601     -0.91495659      0.15061755
C      -2.92397142      0.28152581      0.42076826
N      -2.29739691      1.47644838      0.46229956
C      -0.96150369      1.47487718      0.22381006
H       3.67065187      0.37949330      0.13243814
H       3.63230317     -0.52980129     -1.18879316
H       1.63519794     -1.48092135      0.41677693
H      -0.39782953     -1.82008054     -0.32877565
H      -2.83646390     -1.84466297      0.11659382
H      -3.99355026      0.31233190      0.61046951
H      -0.49180829      2.45549176      0.25712333
