22
CCC(CO[N+](=O)O)O[N+](=O)O
C      -2.92142010     -0.49011726     -0.66130461
C      -1.57944535     -1.19728847     -0.52140132
C      -0.41760697     -0.20944374     -0.36053587
C       0.91904157     -0.96300967     -0.28671527
O       1.97174918     -0.00582093     -0.39637627
N       3.05092169     -0.40629838      0.43743370
O       3.58786135     -1.71154445      0.33425876
O       3.57276387      0.50622755      1.37488609
O      -0.62093826      0.51008425      0.86440399
N       0.02802992      1.77017777      0.78795507
O       1.29285156      1.96715682      1.40197580
O      -0.56775665      2.85486378      0.12268190
H      -3.72075567     -1.22407311     -0.80475683
H      -3.15957811      0.09537646      0.23214327
H      -2.92035372      0.18336667     -1.52424911
H      -1.41594033     -1.82458622     -1.40530461
H      -1.63017319     -1.85980494      0.35131992
H      -0.41319964      0.48861622     -1.20830808
H       1.02045889     -1.66979156     -1.11665278
H       0.97871385     -1.50758111      0.66440947
H       2.84763560      1.16272096      1.37969462
H       0.09714051      3.53076937      0.33444217
