14
Oc1ccc(O)cc1
O       2.69827333      0.44864477      0.25351819
C       1.36357837      0.20534751      0.11782048
C       0.47899542      1.17809116      0.57406115
C      -0.89654241      0.97383078      0.45659852
C      -1.36357829     -0.20534750     -0.11782017
O      -2.69827343     -0.44864494     -0.25351820
C      -0.47899529     -1.17809134     -0.57406069
C       0.89654244     -0.97383084     -0.45659806
H       3.18798004     -0.30970400     -0.10493913
H       0.86166005      2.09194506      1.01951878
H      -1.57871027      1.73758278      0.81498873
H      -3.18798021      0.30970499      0.10493648
H      -0.86166004     -2.09194566     -1.01951800
H       1.57871031     -1.73758277     -0.81498809
