28
Cc1ccccc1Cc1ccccc1
C      -1.17774380      1.46829925     -1.31862119
C      -1.76361916      0.41580942     -0.41702741
C      -2.97421098      0.69278316      0.24086397
C      -3.55143772     -0.23713361      1.10477785
C      -2.92331064     -1.45602417      1.33067296
C      -1.71570754     -1.74288499      0.69542759
C      -1.11669479     -0.81636221     -0.17916309
C       0.20378839     -1.18634285     -0.83038072
C       1.40998009     -0.41839366     -0.33361746
C       1.68492209     -0.30028174      1.03689634
C       2.81554939      0.38947282      1.47872444
C       3.69043945      0.95991340      0.55691164
C       3.43751241      0.83870226     -0.80758158
C       2.30688916      0.14987369     -1.25099232
H      -1.92387223      2.22713446     -1.57897512
H      -0.83319295      1.03233487     -2.26098366
H      -0.34547707      1.97338399     -0.81956148
H      -3.47798997      1.64417644      0.08268150
H      -4.48960121     -0.00686150      1.60225378
H      -3.36988333     -2.18247279      2.00407487
H      -1.23649621     -2.69995462      0.89174916
H       0.41092114     -2.25476971     -0.68240977
H       0.09184152     -1.06949029     -1.91591032
H       1.01484401     -0.73972381      1.77255706
H       3.01194210      0.48068226      2.54370215
H       4.56994004      1.49657419      0.90212627
H       4.12175854      1.27935946     -1.52777699
H       2.12890929      0.06219629     -2.32041845
