28
CCn1c2ccccc2c2ccccc21
C       2.88988953      0.17313016      1.25743760
C       2.31473056      0.35190701     -0.13669170
N       0.87356801      0.15448510     -0.16787465
C       0.25309865     -1.05966435     -0.39556160
C       0.78043656     -2.34341764     -0.61917794
C      -0.11289778     -3.39898782     -0.82488784
C      -1.48698192     -3.18634216     -0.80778249
C      -2.00297935     -1.90675909     -0.58106606
C      -1.12268911     -0.82363169     -0.36965868
C      -1.31904100      0.56873074     -0.11009796
C      -2.46633213      1.37895106      0.03144812
C      -2.32329463      2.74409230      0.29775031
C      -1.05875171      3.30822196      0.42544804
C       0.09343781      2.52820528      0.28897617
C      -0.05955190      1.15739014      0.01773511
H       2.45178338      0.88827485      1.96152200
H       3.97303579      0.32846425      1.24356200
H       2.69466283     -0.83398618      1.64046310
H       2.53094749      1.35510093     -0.51862427
H       2.77203745     -0.35450022     -0.83731914
H       1.85001866     -2.52532409     -0.63235756
H       0.27376504     -4.40024795     -1.00012033
H      -2.16674989     -4.01891974     -0.96954992
H      -3.07719346     -1.74867490     -0.56602047
H      -3.45700783      0.94465080     -0.06393399
H      -3.20814623      3.36580154      0.40708489
H      -0.96317366      4.37108997      0.63500161
H       1.07337883      2.98195976      0.39429565
