30
COc1coc(CSP(=O)(OC)OC)cc1=O
C      -4.66468071      1.73825588      0.39428153
O      -3.84588770      0.84116426      1.13147246
C      -2.86462845      0.16090193      0.44330018
C      -2.59654901      0.24295218     -0.87002859
O      -1.60902241     -0.44639630     -1.53313633
C      -0.78377480     -1.28961387     -0.80602647
C       0.28780463     -1.96679441     -1.60984024
S       1.56215873     -0.78884034     -2.12244405
P       2.35397058     -0.15764926     -0.30539951
O       2.58913465     -1.33016785      0.60434059
O       1.36972198      0.94259865      0.35296786
C       1.62780911      1.31402859      1.69196246
O       3.69326109      0.71583433     -0.54419266
C       4.86962521      0.00867566     -0.87937028
C      -0.94338339     -1.49388149      0.50922147
C      -2.00361230     -0.76874600      1.23680036
O      -2.14231463     -0.94078690      2.44328780
H      -4.06683429      2.54264354     -0.04659099
H      -5.23327086      1.20706244     -0.37598942
H      -5.37910606      2.19098542      1.08822760
H      -3.12716524      0.86704122     -1.57462374
H      -0.15317361     -2.41881849     -2.50453680
H       0.76419793     -2.77492825     -1.04489751
H       0.95575667      2.13178337      1.96389202
H       2.66103353      1.65344112      1.80324744
H       1.43950025      0.46753571      2.35760000
H       5.17728604     -0.62491155     -0.04330305
H       4.70961506     -0.60310259     -1.77084601
H       5.66471283      0.72968334     -1.08536074
H      -0.31218485     -2.14995034      1.09598461
