18
CCCCCO
C      -2.60850669      0.39500601      0.09813811
C      -1.21684202     -0.16105782      0.35894255
C      -0.28659916      0.08530430     -0.82934966
C       1.09403201     -0.54881226     -0.65901700
C       1.91046030      0.05717701      0.47453828
O       3.20227574     -0.53722838      0.47446136
H      -3.06393967     -0.08058698     -0.77634922
H      -2.57266814      1.47499529     -0.07705874
H      -3.25738607      0.21184612      0.96032775
H      -0.81481127      0.31102013      1.26170618
H      -1.29117345     -1.23640892      0.55764429
H      -0.17750449      1.16368347     -0.99744195
H      -0.74487195     -0.33013107     -1.73549658
H       1.65385608     -0.43790025     -1.59653848
H       0.99707883     -1.63059140     -0.50325047
H       1.44837057     -0.13506606      1.44692889
H       2.02543842      1.13718343      0.33914841
H       3.70279096     -0.13131346      1.20266628
