33
CCCCN(C)C(=O)Nc1ccc(Cl)c(Cl)c1
C      -3.90090733     -1.14952552     -2.02805747
C      -3.14819286     -1.40400911     -0.73190501
C      -2.44143081     -0.14274317     -0.23794125
C      -1.68928644     -0.40399992      1.06778417
N      -0.97984659      0.79085124      1.53252284
C      -1.71631014      1.65960988      2.43929783
C       0.37649461      1.05611819      1.33302388
O       0.95717247      1.93657178      1.96251307
N       0.97505859      0.26396615      0.37652677
C       2.34506030      0.20024773      0.04763466
C       3.35699105      0.78222709      0.81351845
C       4.69772683      0.66529490      0.42883579
C       5.04145431     -0.04167290     -0.72386985
Cl      6.71413065     -0.14777258     -1.13908857
C       4.03648018     -0.63602408     -1.49111671
Cl      4.37721995     -1.53464967     -2.92827627
C       2.69587560     -0.51665786     -1.10326911
H      -4.66486327     -0.37722462     -1.89295871
H      -3.21907836     -0.82398469     -2.82019887
H      -4.39869291     -2.06480824     -2.36326656
H      -3.85254111     -1.75865639      0.02952735
H      -2.41478098     -2.20262381     -0.89330190
H      -3.17699170      0.65677756     -0.08677430
H      -1.74676831      0.21641262     -1.00667678
H      -2.38640571     -0.71780414      1.85438081
H      -0.97869506     -1.22797649      0.94046703
H      -2.71022195      1.85437793      2.02628393
H      -1.81375695      1.15286664      3.40403625
H      -1.21088623      2.61718317      2.59045892
H       0.34437468     -0.17721078     -0.27212082
H       3.13707043      1.33082415      1.72545876
H       5.46693234      1.13070961      1.04105141
H       1.92761471     -0.98669466     -1.71202447
