34
O=C(O)C(CCBr)(c1ccccc1)c1ccccc1
O      -0.31308626      1.03559940      2.66239039
C      -0.56345987      1.38978759      1.51905856
O      -1.31233522      2.50329092      1.34633106
C      -0.20146676      0.65663938      0.19026580
C      -0.04000214      1.72153351     -0.95159313
C       1.10341819      2.71084900     -0.73913005
Br      1.06836772      4.05558177     -2.15630309
C      -1.38447829     -0.32829284     -0.06481080
C      -2.27537385     -0.20330861     -1.14487910
C      -3.32415888     -1.11177948     -1.32171122
C      -3.50636032     -2.15986020     -0.42436548
C      -2.64093874     -2.30283301      0.65443383
C      -1.59340496     -1.39737313      0.83369325
C       1.14431567     -0.12971263      0.24591356
C       2.12956936      0.10659103      1.22119062
C       3.34048773     -0.59334219      1.20997423
C       3.59919408     -1.53494671      0.21914743
C       2.64917876     -1.77657000     -0.76648072
C       1.43923182     -1.07900360     -0.75696835
H      -1.53674391      2.77906608      2.26058982
H       0.11510958      1.21733552     -1.91629504
H      -0.97190029      2.29175199     -1.06702841
H       2.08790531      2.24303967     -0.81054242
H       1.02355783      3.26316483      0.19980180
H      -2.18265488      0.59657621     -1.87411469
H      -4.00188381     -0.99769244     -2.16436120
H      -4.32240839     -2.86339742     -0.56543304
H      -2.77769202     -3.11895888      1.35921996
H      -0.93036191     -1.53658562      1.68789838
H       1.98796619      0.83952192      2.01164565
H       4.08336134     -0.39957240      1.98006189
H       4.54044766     -2.07789707      0.21475853
H       2.84655528     -2.50882873     -1.54518970
H       0.72004396     -1.29037385     -1.54716834
