45
CO[C@]1(C)CCC23C[C@@H]1C(C)(C)[C@@H]2CC[C@H]3C
C       4.00066799      0.12218622     -0.96684171
O       2.91456243      0.68096413     -0.24400687
C       1.92401753     -0.22061029      0.28549273
C       2.60141864     -1.08141777      1.37635755
C       1.32138103     -1.13366132     -0.80922946
C      -0.06600867     -1.69744411     -0.46701473
C      -0.99410555     -0.66343189      0.21025916
C      -0.31253654     -0.19553244      1.50045414
C       0.81277646      0.68581452      0.93158367
C      -0.01244439      1.62045264     -0.04178988
C      -0.62586851      2.78372271      0.77758583
C       0.78701854      2.29644633     -1.16799465
C      -1.07631819      0.64513772     -0.63730214
C      -2.55488124      1.03514645     -0.61172168
C      -3.25711051     -0.31703234     -0.60482623
C      -2.45977653     -1.11372401      0.43420512
C      -2.74299308     -2.60692031      0.35318373
H       4.59954537      0.94960325     -1.35873181
H       3.65858456     -0.47214574     -1.81733444
H       4.64745244     -0.47289312     -0.31842794
H       3.04555917     -0.44386541      2.14908561
H       1.91851310     -1.78627252      1.85575257
H       3.41685767     -1.68480715      0.96440401
H       1.25408444     -0.58779489     -1.75674794
H       1.99798624     -1.97041762     -1.02635889
H      -0.52032245     -2.07114565     -1.39261440
H       0.06310697     -2.56409361      0.19333874
H      -0.98945991      0.39155544      2.13053391
H       0.02371792     -1.02648546      2.12393565
H       1.27334203      1.29192967      1.72212374
H      -1.23913312      2.44374632      1.61624548
H       0.16526719      3.41547416      1.19906262
H      -1.25283678      3.42593243      0.14835756
H       0.14120682      2.96187651     -1.75372284
H       1.21270356      1.58449471     -1.87832545
H       1.60332107      2.90486865     -0.76341465
H      -0.83253397      0.41199669     -1.68306904
H      -2.83758410      1.58259883      0.29209212
H      -2.83407869      1.64101013     -1.47881639
H      -3.19586091     -0.78444064     -1.59513948
H      -4.31330569     -0.22684622     -0.33282599
H      -2.78964716     -0.77945111      1.42770046
H      -3.79976011     -2.80468936      0.56346276
H      -2.14926648     -3.15623660      1.09068127
H      -2.52725860     -3.01359795     -0.63964182
