28
O=C(O)c1cccc(N=Nc2ccc(O)cc2)c1
O       5.66275558      0.91772172     -1.15485562
C       4.47514517      0.68273191     -1.27949212
O       3.86375841      0.78640916     -2.47213515
C       3.55599414      0.26358163     -0.19518262
C       4.08009529      0.10558981      1.09407466
C       3.25170334     -0.29404372      2.14243320
C       1.89723657     -0.53220599      1.90378131
C       1.35607831     -0.36559913      0.62370133
N      -0.00684665     -0.64092876      0.41279991
N      -0.61543201      0.39931758      0.07707510
C      -1.97982941      0.12734383     -0.13020800
C      -2.93437069      0.75658429      0.67836393
C      -4.29962337      0.53145261      0.47979108
C      -4.70784166     -0.32134947     -0.54071113
O      -6.02754004     -0.57074524     -0.77264043
C      -3.77746837     -0.94622009     -1.36271995
C      -2.41479344     -0.71795950     -1.16028381
C       2.19644067      0.02290673     -0.42765937
H       4.57872680      1.06708811     -3.08106473
H       5.13615605      0.29031109      1.28364443
H       3.65965329     -0.42150216      3.14212415
H       1.25191551     -0.84779484      2.72025928
H      -2.60606693      1.42508022      1.47014420
H      -5.01885982      1.02747746      1.12344757
H      -6.55717651     -0.07444800     -0.12729374
H      -4.10959453     -1.60623407     -2.15890498
H      -1.68602108     -1.20041448     -1.80599385
H       1.77580539      0.13584928     -1.42358440
