20
Cc1cc(O)ccc1S(=O)(=O)O
C      -0.48028010     -1.97865453     -0.86155324
C       0.16777910     -0.80972541     -0.17231283
C       1.54652602     -0.85785705      0.09788758
C       2.17706808      0.21268128      0.72937331
O       3.51170507      0.18766331      1.00587530
C       1.46453042      1.34526628      1.10017678
C       0.09847496      1.41834107      0.83311876
C      -0.54629604      0.34889133      0.19502776
S      -2.28414939      0.49394809     -0.15650659
O      -2.99880159     -0.29003275      0.82467347
O      -2.47195753      0.30583081     -1.57903323
O      -2.65563389      2.04403719      0.09736198
H       0.18331343     -2.85034844     -0.87262762
H      -1.39211336     -2.28524624     -0.34057101
H      -0.71371266     -1.72566561     -1.89996533
H       2.11997155     -1.73639905     -0.18657941
H       3.87815464     -0.66193424      0.71020895
H       1.97217871      2.16849200      1.59580440
H      -0.44869953      2.30892045      1.13247364
H      -3.12805788      2.36179150     -0.70133648
