20
C[C@@H](O)CCCC=O
C      -2.69804366      0.38905123      0.25356781
C      -1.51334211     -0.45838151     -0.19021567
O      -1.46304615     -0.47732697     -1.61429621
C      -0.19434623      0.10782307      0.34402148
C       1.00788947     -0.75641561     -0.05970365
C       2.32136579     -0.22088296      0.50094836
C       2.71625463      1.07191367     -0.16402482
O       3.04871803      2.07383935      0.46211737
H      -2.61657086      1.41062307     -0.13377821
H      -3.63299921     -0.02281061     -0.14142238
H      -2.77088851      0.43080630      1.34452354
H      -1.64627897     -1.48899671      0.15748635
H      -2.31699152     -0.81710197     -1.93364752
H      -0.24088835      0.18112533      1.43724147
H      -0.05132137      1.12194706     -0.04926699
H       0.85712563     -1.77614864      0.31470128
H       1.07316319     -0.82091679     -1.15243623
H       3.12404581     -0.94077102      0.30844707
H       2.25439487     -0.06724157      1.58298628
H       2.74175953      1.05986528     -1.26724933
