20
O=c1ccc2cc3ccoc3cc2o1
O       4.30576725     -0.68620528      1.32602591
C       3.23301036     -0.36240950      0.83016259
C       3.17592588      0.63229952     -0.25462569
C       2.02696431      1.01218630     -0.82153666
C       0.77212390      0.43380750     -0.36517743
C      -0.45354263      0.80869777     -0.93705749
C      -1.63590256      0.21404496     -0.45326434
C      -3.01987118      0.31949655     -0.75484145
C      -3.67056405     -0.54604512      0.09425503
O      -2.78301713     -1.18158077      0.90259241
C      -1.54445313     -0.72193146      0.57258611
C      -0.35179193     -1.12119240      1.16638612
C       0.79960852     -0.51210984      0.66277361
O       2.02497704     -0.90106374      1.24983381
H       4.12932600      1.04046079     -0.56748389
H       2.01294596      1.74700657     -1.61909064
H      -0.50167299      1.54140670     -1.73694370
H      -3.48603449      0.94880400     -1.49937512
H      -4.70804175     -0.81233616      0.24211343
H      -0.32575739     -1.85333639      1.96266740
