41
O=C(NC(=O)c1c(F)cccc1F)Nc1ccc(OC(F)(F)C(F)OC(F)(F)F)c(Cl)c1
O      -1.88218966     -0.68231611      2.54643452
C      -2.09061993     -0.42064969      1.36520027
N      -3.39336494     -0.47171550      0.90826541
C      -3.88409050     -0.22559542     -0.36685836
O      -3.14256179      0.08729317     -1.29520386
C      -5.35335763     -0.35558458     -0.57270359
C      -5.90440834     -0.11575036     -1.83519596
F      -5.13932156      0.23232002     -2.87914120
C      -7.27875547     -0.22918627     -2.06088697
C      -8.13151608     -0.58716156     -1.01970555
C      -7.60193902     -0.83009849      0.24449453
C      -6.22698379     -0.71349419      0.45748613
F      -5.76764609     -0.95852433      1.69420802
N      -1.15601825     -0.07570648      0.42505581
C       0.23443834      0.06260345      0.58084097
C       0.96758028      0.42587088     -0.55379315
C       2.35784344      0.58731915     -0.49562530
C       3.04214178      0.38719623      0.70348775
O       4.39255763      0.52010791      0.87280376
C       5.21431549      0.81126810     -0.25406457
F       5.03244779     -0.15763104     -1.18840309
F       4.82971890      1.98899598     -0.80908160
C       6.69807393      0.86860781      0.16880902
F       6.88374497      1.90211464      1.04302246
O       7.57466526      1.13399448     -0.91666778
C       8.20160279     -0.05493678     -1.31958167
F       7.29481012     -1.02850477     -1.51528546
F       9.07266680     -0.45142477     -0.37272353
F       8.86800306      0.16094218     -2.46762115
C       2.30124306      0.02370865      1.84022773
Cl      3.08522081     -0.24654646      3.36160674
C       0.91139465     -0.13802256      1.78167111
H      -4.03452797     -0.72960806      1.64806495
H      -7.67159698     -0.03499994     -3.05577156
H      -9.20155622     -0.67580098     -1.19380968
H      -8.25104219     -1.11060865      1.07003669
H      -1.53755954      0.10003378     -0.50445823
H       0.46480810      0.59066573     -1.50545073
H       2.86669813      0.87282980     -1.41188579
H       6.97089259     -0.04179592      0.71620192
H       0.38418804     -0.42020904      2.68715453
