24
N[C@@H](Cc1cc(I)c(O)c(I)c1)C(=O)O
N      -1.93756998     -1.34715520     -1.26100833
C      -2.14326856     -0.82629294      0.11600544
C      -0.94492621     -1.10993794      1.04111105
C       0.37390672     -0.50164088      0.60961731
C       1.23116127     -1.20394909     -0.25073346
C       2.44569669     -0.64267547     -0.66157907
I       3.65524899     -1.76076807     -1.95313618
C       2.81888023      0.62741035     -0.21354747
O       4.00958539      1.16553649     -0.62542423
C       1.96974328      1.33009846      0.64850634
I       2.47067299      3.23520848      1.35329278
C       0.75561354      0.77026183      1.05892015
C      -2.50397938      0.66515187      0.10927308
O      -2.53331703      1.40936626      1.07684157
O      -2.85417172      1.13115908     -1.11140241
H      -1.14800122     -0.84607571     -1.67421141
H      -2.73600081     -1.03462215     -1.82144382
H      -3.02235055     -1.34341382      0.51931165
H      -1.17439447     -0.75949263      2.05650477
H      -0.81270959     -2.19628528      1.13772557
H       0.94048702     -2.19399463     -0.60038700
H       4.10699146      2.03680021     -0.20210599
H       0.10097601      1.32037311      1.73376813
H      -3.06827408      2.07493768     -0.95311107
