41
CCOC(=O)NNc1ccc(N(CC)CC(C)O)nn1
C       6.07513266     -1.26811222      2.05461448
C       5.52628022     -1.35615865      0.64390083
O       4.66357502     -0.23390593      0.42877819
C       4.09847670     -0.19802647     -0.80261216
O       4.26804532     -1.02328388     -1.69299434
N       3.27317620      0.89586810     -0.91281883
N       2.33873475      0.89245540     -1.98436399
C       1.00572150      0.74037728     -1.52081380
C      -0.00678040      0.53641746     -2.44112845
C      -1.32934114      0.42626073     -2.00059816
C      -1.63765408      0.53957637     -0.64956120
N      -2.95383105      0.40721325     -0.18581623
C      -4.01063900      1.11369051     -0.92872944
C      -3.89230268      2.62831677     -0.81551330
C      -3.11640673      0.37347870      1.29039835
C      -3.16213703     -1.08021719      1.80941428
C      -1.81587556     -1.78887647      1.81540127
O      -4.07364111     -1.84049376      1.00645319
N      -0.61943227      0.73726993      0.21238401
N       0.69532706      0.85553297     -0.21571153
H       6.74342387     -2.10741471      2.26640985
H       6.62626517     -0.33252546      2.19613613
H       5.26021993     -1.27135677      2.78604172
H       6.35186813     -1.33167221     -0.07625928
H       4.96017340     -2.28693935      0.52540895
H       2.95417085      1.32261702     -0.04603951
H       2.55909046      0.12960847     -2.63486379
H       0.21594043      0.45938091     -3.50006971
H      -2.10040695      0.22830321     -2.73592586
H      -4.02459764      0.81706976     -1.98284898
H      -4.98764336      0.80393475     -0.53647523
H      -2.96178144      2.99419401     -1.26075899
H      -4.72515525      3.10984472     -1.33776337
H      -3.91480880      2.95435363      0.22920796
H      -2.37224867      0.97235726      1.82841808
H      -4.08667592      0.82266986      1.54147985
H      -3.55450861     -1.07438024      2.83242983
H      -1.91723221     -2.77825380      2.27545700
H      -1.44572270     -1.96513852      0.80061322
H      -1.06893142     -1.22287617      2.37942223
H      -3.83786763     -1.60115928      0.08776424
