20
O=C([O-])CC(O)(CC(=O)O)C(=O)[O-].[Co+2]
O      -2.24561713     -0.71824542      1.90817996
C      -2.21615081     -0.87816915      0.66227176
O      -3.39095785     -1.10573178     -0.02104295
C      -0.92365891     -0.81404571     -0.03426247
C      -0.13905398      0.42234284      0.31097604
O       0.13068498      0.48577735      1.67551507
C       1.11748809      0.46351553     -0.51224112
C       2.04609093     -0.65358934     -0.29845854
O       1.80094522     -1.51311860      0.57353201
O       3.18930974     -0.76911253     -1.04752691
C      -0.96618332      1.59817649     -0.14145380
O      -1.25221432      1.62859165     -1.36376435
O      -1.37630772      2.57158114      0.73810002
Co      0.00000000      0.00000000      0.00000000
H      -1.08663783     -0.78184399     -1.13573082
H      -0.39944259     -1.75965694      0.18245566
H      -0.15953887      1.40118318      1.96976403
H       1.64523993      1.42932753     -0.27300861
H       0.80543702      0.57833019     -1.57917569
H       3.42056742     -1.58531244     -1.61412930
