18
O=C(O)CNCP(=O)(O)O
O      -4.13548540     -0.17925387      0.30700737
C      -2.94689007     -0.05440950      0.55548134
O      -2.47523612      0.63078199      1.62900918
C      -1.81607611     -0.67135072     -0.26603558
N      -0.53736288     -0.00365567      0.08880144
C       0.59525067     -0.75889055     -0.49663550
P       2.06574927      0.25295415     -0.24767358
O       2.58763808      0.44193405      1.13624669
O       1.71609056      1.66034094     -0.94218296
O       3.18010700     -0.31269376     -1.24877455
H      -1.48979644      0.56241047      1.59913326
H      -1.77809024     -1.73701054     -0.01771163
H      -2.03193130     -0.53072161     -1.32956274
H      -0.52818843      0.92530148     -0.35842068
H       0.71991672     -1.72877105     -0.00651441
H       0.44489889     -0.90846666     -1.57094558
H       2.36213391      2.35607576     -0.71673708
H       4.06727190      0.05542507     -1.07869056
