16
Cc1nc2ncncc2[nH]1
C      -2.89931294      0.17950127      0.25937463
C      -1.42003096      0.23110574      0.19266851
N      -0.67064585      1.31376146      0.13207038
C       0.62088604      0.86316968      0.08640407
N       1.72002734      1.63561230      0.01821344
C       2.85178506      0.91868216     -0.01363237
N       2.98925483     -0.42625437      0.01441262
C       1.87066830     -1.17693389      0.08291120
C       0.66296460     -0.51863342      0.11960185
N      -0.64499369     -0.90577863      0.18724899
H      -3.32068942      1.18941742      0.25237953
H      -3.22607920     -0.32012526      1.17650229
H      -3.30456648     -0.36516942     -0.59889655
H       3.77458591      1.48840934     -0.06888431
H       1.98605623     -2.25232065      0.10509394
H      -0.98990977     -1.85444374      0.22656625
