14
CCCC(Cl)Cl
C      -1.94321068      0.27593604      0.00118242
C      -0.49667338      0.57058933     -0.36986157
C       0.42738332     -0.57973432      0.04778906
C       1.91191977     -0.38747907     -0.27913404
Cl      2.19497196     -0.24620567     -2.03156390
Cl      2.60185338      1.02230936      0.56204068
H      -2.29904589     -0.63158845     -0.49692045
H      -2.05133385      0.14069143      1.08208230
H      -2.58879645      1.10568218     -0.30336214
H      -0.44064405      0.73573055     -1.45099025
H      -0.19447632      1.50319516      0.11816872
H       0.32460376     -0.74181120      1.12891808
H       0.07988420     -1.50475998     -0.43100603
H       2.47356425     -1.26255535      0.06075018
