21
Cc1ccc(C)c(C(=O)O)c1
C       3.09412364      0.33470225      0.61097550
C       1.69537080     -0.03473154      0.21454822
C       1.45742528     -1.14302137     -0.59887055
C       0.15702291     -1.46488426     -0.99124993
C      -0.93882111     -0.68168343     -0.58815425
C      -2.31323277     -1.08764635     -1.04626899
C      -0.70556330      0.45102702      0.22006719
C      -1.82879072      1.33175246      0.66518209
O      -2.99860560      1.26140606      0.33939027
O      -1.42992466      2.28661115      1.52840165
C       0.61225566      0.76273391      0.60751143
H       3.73143660     -0.55377420      0.67169193
H       3.10704954      0.81081425      1.59705670
H       3.52058486      1.02591849     -0.12241745
H       2.28316141     -1.76723099     -0.93418804
H       0.00419002     -2.33920608     -1.62173858
H      -2.28437466     -2.01710365     -1.62573057
H      -2.74400473     -0.31727928     -1.69334186
H      -2.96671544     -1.26848535     -0.18708503
H      -2.25777114      2.77056025      1.73096070
H       0.80518340      1.63952069      1.22325957
