33
CC(C)(C)c1ccc2c(N)c(C#N)c(N)nc2n1
C       3.55101519     -0.02476513      1.14767150
C       2.77925866      0.25792804     -0.15594075
C       3.41501657     -0.53279481     -1.31560431
C       2.92656791      1.76284316     -0.47336317
C       1.30805111     -0.14309841      0.00597502
C       0.94467516     -1.44675680      0.30920540
C      -0.40467495     -1.74900170      0.44635409
C      -1.38368837     -0.74778984      0.28194494
C      -2.78326052     -0.96209161      0.42350193
N      -3.28857540     -2.26504563      0.66750306
C      -3.64881189      0.09887220      0.11084599
C      -5.06960728     -0.06481487      0.14867410
N      -6.21804117     -0.23571357      0.18296840
C      -3.09712695      1.33242778     -0.21517718
N      -3.86975999      2.46613343     -0.46919157
N      -1.77306450      1.54502312     -0.26499207
C      -0.92837862      0.54115807     -0.04534673
N       0.37010849      0.81820704     -0.16667675
H       3.10168640      0.50452309      1.99630945
H       3.56337527     -1.09197309      1.39544207
H       4.59496086      0.29968571      1.06658020
H       2.86963003     -0.36863692     -2.25253960
H       3.41996572     -1.61150391     -1.12336807
H       4.45562916     -0.22842620     -1.47717944
H       3.98075639      2.04219032     -0.58557682
H       2.41664195      2.02869729     -1.40698366
H       2.50603923      2.38488306      0.32574722
H       1.68723938     -2.22762294      0.43701612
H      -0.67944983     -2.77534540      0.66906098
H      -2.69256001     -2.84684343      1.24843837
H      -4.25436178     -2.30720613      0.99065931
H      -4.56983555      2.32555608     -1.19035367
H      -3.22942070      3.22130199     -0.71160436
