36
Fc1ccccc1C1=NCC(=S)N(CC(F)(F)F)c2ccc(Cl)cc21
F       0.90035180     -1.72457798      0.96255338
C       1.99170474     -0.94952335      1.04227604
C       3.10793306     -1.45200538      1.70763909
C       4.25215332     -0.66499756      1.83554833
C       4.27283274      0.62517906      1.30422850
C       3.15218581      1.12695981      0.63726079
C       2.00724125      0.33300345      0.48894162
C       0.81920803      0.89648365     -0.22009606
N       0.58827684      2.15920554     -0.07472605
C      -0.62782639      2.69688442     -0.67867267
C      -1.80301282      2.15394656      0.14116111
S      -2.54224324      3.19767143      1.24644392
N      -2.19593627      0.82484774     -0.11671952
C      -3.30953254      0.18588715      0.65054692
C      -2.85288456     -0.66489878      1.83783960
F      -2.18706849     -1.76769483      1.42514966
F      -2.05245267      0.01098193      2.68596114
F      -3.92719024     -1.09398389      2.54366373
C      -1.42626253     -0.04380761     -0.97566446
C      -2.10092226     -0.97910388     -1.78372562
C      -1.41037443     -1.82360943     -2.66055335
C      -0.02827383     -1.74360888     -2.75364279
Cl      0.81869645     -2.76495388     -3.84625756
C       0.67080975     -0.83487180     -1.97000315
C      -0.01779232     -0.00195539     -1.06737373
H       3.07387306     -2.45118800      2.13134057
H       5.12314318     -1.05157543      2.35959416
H       5.15897163      1.24611751      1.41593992
H       3.17299827      2.13874265      0.23722912
H      -0.72445077      2.44327628     -1.74078743
H      -0.58531018      3.79089079     -0.63304617
H      -3.99503358      0.95228437      1.02109539
H      -3.92815480     -0.42221936     -0.01396976
H      -3.18514871     -1.04272978     -1.80029275
H      -1.96365233     -2.52676156     -3.27890347
H       1.75314303     -0.77829556     -2.05997847
