26
Cn1cnc2[nH]c(=O)nc(NCCO)c21
C      -0.55977195      2.33531570      0.90799625
N      -1.56234311      1.37854609      0.51872732
C      -2.91805648      1.60648149      0.52874218
N      -3.60063434      0.53748891      0.16956168
C      -2.64135641     -0.38507577     -0.07247958
N      -2.83242652     -1.66894217     -0.44870573
C      -1.74474921     -2.49132696     -0.62697920
O      -1.94287633     -3.66183074     -0.94894420
N      -0.46415037     -1.99670708     -0.45130469
C      -0.23968660     -0.75842506     -0.10622736
N       1.05494722     -0.31343614      0.03719557
C       2.18294766     -1.08729840     -0.47129582
C       3.48433346     -0.37121343     -0.10206174
O       3.44182933      0.97934396     -0.57585935
C      -1.37615397      0.08804867      0.11007106
H      -1.04272510      3.22106305      1.32912890
H       0.01327508      2.61634464      0.02120365
H       0.08631216      1.88192287      1.66360979
H      -3.34940540      2.55916034      0.80976810
H      -3.76233441     -2.03215546     -0.57304505
H       1.20650879      0.67525766     -0.13713643
H       2.10131998     -1.15459364     -1.56210522
H       2.18785858     -2.09866275     -0.05144329
H       3.61739609     -0.34333688      0.98429629
H       4.34082413     -0.87832081     -0.55663867
H       4.31911772      1.36235192     -0.39607444
