22
OCC(O)C(O)C(O)CO
O      -2.41363034     -0.02147989     -2.05621890
C      -1.68353705      0.25742219     -0.85716689
C      -0.64049659     -0.85064383     -0.67571648
O      -1.34327118     -2.11013908     -0.64354277
C       0.17173294     -0.74686704      0.62209733
O      -0.71794062     -0.89819575      1.74930241
C       0.94082512      0.56545906      0.81373947
O       1.61268327      0.52450210      2.09020526
C       2.00094236      0.81290052     -0.25813115
O       2.68173943      2.03374816      0.03068696
H      -3.07053133      0.69127381     -2.15738399
H      -2.40199359      0.26831089     -0.03172471
H      -1.21724282      1.24107056     -0.95738183
H       0.02179158     -0.88770352     -1.54735245
H      -1.96382425     -2.06275210     -1.40136727
H       0.86388265     -1.59530278      0.69137518
H      -1.24566788     -1.69711506      1.53543786
H       0.25807581      1.41967289      0.87998883
H       0.94649354      0.15514095      2.70745894
H       2.74988343      0.01440497     -0.26603071
H       1.56222622      0.90062987     -1.25527945
H       2.88785930      1.98566307      0.98700435
