30
CC(C)(C)OOC(=O)C(C)(C)C
C      -2.60812685      0.39693110     -1.30099311
C      -2.31410838     -0.23239245      0.06502741
C      -1.96055718      0.83692874      1.10376646
C      -3.54979321     -1.00561315      0.54059792
O      -1.26637634     -1.20959846     -0.04955793
O      -0.06253297     -0.53028104     -0.52992561
C       0.91960952     -0.71098153      0.41336603
O       0.77753068     -1.28519106      1.48652853
C       2.22712314     -0.06497624     -0.05691525
C       2.01950799      1.44733643     -0.21249097
C       3.32685587     -0.31458274      0.98772617
C       2.65952522     -0.68633260     -1.39186206
H      -2.79522952     -0.37712608     -2.05378200
H      -1.75717460      0.98487964     -1.66220330
H      -3.47890874      1.05966420     -1.25796348
H      -1.10694747      1.44247652      0.78125292
H      -1.67804802      0.37639957      2.05698979
H      -2.80147925      1.51579927      1.28116536
H      -3.80854073     -1.80125170     -0.16774774
H      -3.35538155     -1.49791400      1.50060452
H      -4.41932632     -0.35038595      0.65752362
H       1.66492272      1.89427732      0.72344973
H       2.95173679      1.94885612     -0.49517954
H       1.27422755      1.67544095     -0.98288645
H       3.49605450     -1.38728304      1.13742813
H       4.27778623      0.13439939      0.67966975
H       3.05572623      0.11228389      1.96036465
H       2.75130452     -1.77531541     -1.30758549
H       1.93370024     -0.48236389     -2.18711560
H       3.62691997     -0.28936445     -1.71925246
