26
CC(O)COCc1c(Cl)ccc(Cl)c1Cl
C       3.91487442      0.65494243      1.86069814
C       2.46476707      0.24538012      1.67319107
O       2.35952871     -1.16386919      1.89307459
C       1.95664735      0.57195897      0.26624839
O       0.58071103      0.17557030      0.19556952
C       0.03271902      0.41526031     -1.09817808
C      -1.41666649     -0.00076010     -1.06699347
C      -2.42692967      0.92735344     -0.74653672
Cl     -2.08129281      2.58588333     -0.39338488
C      -3.77055185      0.54326489     -0.69275374
C      -4.13314832     -0.77651041     -0.94485949
C      -3.15171029     -1.72110827     -1.24445778
Cl     -3.68428506     -3.34184849     -1.53475459
C      -1.79736463     -1.34320071     -1.30051202
Cl     -0.58749060     -2.54330473     -1.65184611
H       4.56624426      0.12721175      1.15532283
H       4.04525495      1.73219973      1.72067769
H       4.26001834      0.38881041      2.86558511
H       1.83408482      0.73443237      2.42389305
H       1.45543521     -1.40247605      1.60851278
H       2.52345805      0.00778722     -0.48358229
H       2.04083145      1.64551636      0.06490529
H       0.14531516      1.47123689     -1.36622387
H       0.59254919     -0.14084260     -1.85837068
H      -4.54182422      1.27074712     -0.44731744
H      -5.18117508     -1.06363509     -0.89790729
