23
Clc1ccc(Oc2c(Cl)cc(Cl)c(Cl)c2Cl)cc1
Cl      5.07346712      0.94673026     -1.39156017
C       3.59271633      0.35232494     -0.74906671
C       2.39542654      0.61207200     -1.41446661
C       1.18917507      0.13112516     -0.89572319
C       1.18627358     -0.60209913      0.29493357
O       0.06251524     -1.13749601      0.89011133
C      -1.14570973     -0.52189933      0.64780889
C      -1.49983187      0.64513970      1.33568053
Cl     -0.44963151      1.38092892      2.49119587
C      -2.74097750      1.23733291      1.11171087
C      -3.64249674      0.65644247      0.21577027
Cl     -5.15808755      1.46267453     -0.00298795
C      -3.31487033     -0.53084063     -0.45837768
Cl     -4.44915491     -1.24942711     -1.56025793
C      -2.06214937     -1.12651682     -0.23058040
Cl     -1.61227339     -2.60435091     -1.02651006
C       2.39325053     -0.87163844      0.94727420
C       3.59737112     -0.39032433      0.42929808
H       2.39495727      1.18232009     -2.33989370
H       0.27573608      0.33068156     -1.44638372
H      -3.01119476      2.14866895      1.64198397
H       2.39591137     -1.45287176      1.86633724
H       4.52957741     -0.59897704      0.94718052
