51
CN(Cc1ccc(OCCN2CCOCC2)cc1)C(=O)c1ccc([N+](=O)[O-])o1
C      -4.36444363     -0.93077450     -1.84689460
N      -4.25144217     -1.45725613     -0.49368465
C      -3.39986648     -2.63191944     -0.31922086
C      -1.93035229     -2.28652423     -0.39042665
C      -1.20057635     -2.49174153     -1.56717493
C       0.15321129     -2.15144808     -1.62596036
C       0.79991020     -1.59924951     -0.51822322
O       2.12270551     -1.31261633     -0.71366248
C       2.82566710     -0.71166940      0.37910282
C       4.27979941     -0.47992638     -0.06574415
N       5.14287821      0.07109395      0.99461805
C       4.86186962      1.49394396      1.29425380
C       5.35174311      2.47720038      0.21597254
O       6.74915001      2.30821680     -0.04984336
C       7.03133426      0.95967397     -0.44273853
C       6.57549989     -0.04169515      0.63219403
C       0.07852211     -1.39074446      0.65634857
C      -1.27759788     -1.73048098      0.71839781
C      -4.71859444     -0.81006758      0.65926325
O      -4.61886283     -1.35733777      1.76036690
C      -5.32593884      0.51374906      0.56988802
C      -6.05542792      1.20997901      1.52631109
C      -6.38605939      2.47343423      0.97504338
C      -5.82556425      2.47314331     -0.27776658
N      -5.80907653      3.45462911     -1.31556598
O      -6.36754362      4.53034524     -1.06205506
O      -5.25128340      3.15871232     -2.38019827
O      -5.17446875      1.30984931     -0.53684123
H      -5.36191949     -0.51586365     -2.01084321
H      -4.22177008     -1.73423792     -2.57591115
H      -3.60168302     -0.16206032     -1.99905562
H      -3.60197229     -3.12578495      0.63850477
H      -3.66292847     -3.36746714     -1.08948941
H      -1.67691005     -2.91686969     -2.44729727
H       0.70969415     -2.31732558     -2.54527344
H       2.81540181     -1.38364412      1.24594431
H       2.35082604      0.24163527      0.63439649
H       4.67023653     -1.45877624     -0.37654852
H       4.28974894      0.13437994     -0.97412053
H       3.79837786      1.65658289      1.49528655
H       5.38004363      1.73196259      2.23272520
H       5.20743301      3.50476692      0.56523331
H       4.79091568      2.36815937     -0.71893835
H       8.11402164      0.87923758     -0.58358230
H       6.55847972      0.75907892     -1.41080833
H       6.81599449     -1.06536920      0.32203127
H       7.15718290      0.14235380      1.54494437
H       0.53652152     -0.96805537      1.54429948
H      -1.82557271     -1.55979521      1.64411121
H      -6.30728819      0.83125240      2.50928850
H      -6.95002553      3.27532054      1.43207785
