47
Cc1ccc(OP(=O)(Oc2cccc(C)c2)Oc2ccccc2C)cc1
C       5.81997469     -1.51670784      2.14563659
C       4.43741974     -1.32115186      1.59828350
C       3.58758084     -0.34517090      2.13102006
C       2.28817291     -0.18533040      1.63922104
C       1.82762792     -1.00776697      0.61497570
O       0.57796446     -0.93327478      0.06964741
P      -0.49464600      0.23080192      0.38369719
O      -0.90350030      0.35265965      1.82557255
O      -1.69500162     -0.08693949     -0.64672872
C      -2.51145347     -1.17978337     -0.58073241
C      -3.42421763     -1.31843824     -1.62651051
C      -4.30842574     -2.39587387     -1.64717327
C      -4.27785052     -3.34130229     -0.62279475
C      -3.35739442     -3.21902122      0.42451511
C      -3.35236074     -4.21271245      1.54909657
C      -2.48188765     -2.12270217      0.44587005
O       0.19677814      1.54322435     -0.24773886
C      -0.37517989      2.78389456     -0.31830510
C      -1.61824240      3.08767938      0.23911874
C      -2.13814009      4.37859909      0.12739321
C      -1.41936144      5.36659846     -0.54006387
C      -0.17578122      5.06783173     -1.09578053
C       0.35857989      3.77600579     -0.99001409
C       1.70331139      3.46838858     -1.58686467
C       2.66266132     -1.99315882      0.08898256
C       3.96052887     -2.15177467      0.57830813
H       6.53616476     -1.67187332      1.33181176
H       6.15171684     -0.63917706      2.71038388
H       5.83955489     -2.38583447      2.81002734
H       3.92903854      0.29847328      2.93923626
H       1.66283522      0.58080059      2.08779381
H      -3.45129349     -0.58297626     -2.42656198
H      -5.02239091     -2.49716742     -2.46005665
H      -4.97821215     -4.17354491     -0.64466844
H      -3.64170896     -5.20804131      1.19381397
H      -2.35290771     -4.30343027      1.98762274
H      -4.05361909     -3.89613058      2.32755657
H      -1.79296391     -2.02650187      1.28083047
H      -2.20562839      2.34764299      0.77449478
H      -3.10527203      4.61244883      0.56626962
H      -1.82526673      6.37123903     -0.62467434
H       0.37535435      5.85139343     -1.61094374
H       2.40277984      3.15902184     -0.80310563
H       2.13064106      4.34295336     -2.08855596
H       1.61515438      2.66929779     -2.32992189
H       2.30284422     -2.64420653     -0.70425399
H       4.59602226     -2.92896135      0.16030649
