24
Cc1ccccc1C(C)C
C       1.22870560     -2.08889687     -0.18535729
C       1.24864379     -0.58904442     -0.06267179
C       2.49599314      0.05985242     -0.02387844
C       2.58272330      1.44610167      0.08873009
C       1.42301942      2.20586781      0.16437300
C       0.17781880      1.57842885      0.12731164
C       0.06416157      0.17818745      0.01386411
C      -1.32007754     -0.46036315     -0.02251017
C      -2.12330522      0.00565673     -1.24093721
C      -2.09431209     -0.20043365      1.27360356
H       0.71259726     -2.38859631     -1.10302130
H       0.73318032     -2.53495021      0.68285116
H       2.24134336     -2.50406745     -0.23105077
H       3.41651119     -0.51745327     -0.08180749
H       3.55503199      1.93000819      0.11717430
H       1.48418096      3.28709624      0.25228039
H      -0.71360705      2.19906455      0.18845735
H      -1.22567185     -1.54729795     -0.11268334
H      -2.34583720      1.07739473     -1.20304242
H      -3.07822245     -0.52815744     -1.29818320
H      -1.57415044     -0.18970363     -2.16876137
H      -2.31563948      0.86275469      1.41580526
H      -1.52441995     -0.54321234      2.14441849
H      -3.04866742     -0.73823663      1.26503543
