53
Cc1noc(C)c1S(=O)(=O)NCC(c1ccccc1)N1CCCCCC1
C       3.38782037      0.34958074     -3.90365115
C       4.01009901     -0.13043902     -2.64666613
N       5.27591022      0.21083347     -2.36287403
O       5.57266774     -0.39060021     -1.15244761
C       4.48667795     -1.07667168     -0.70785889
C       4.63612823     -1.79228035      0.57254829
C       3.47037211     -0.93361114     -1.62030375
S       1.91005286     -1.60131375     -1.49714700
O       1.15523921     -1.06822934     -2.60788437
O       2.13235634     -3.01941578     -1.33579521
N       1.20606976     -1.04225382     -0.07606238
C       0.90197562      0.41882696     -0.01029671
C      -0.25593401      0.64294519      1.01299339
C      -0.66167433      2.10586954      1.16297396
C      -0.89137195      2.63156624      2.44664517
C      -1.25731695      3.96760727      2.62446350
C      -1.40141110      4.80320351      1.52146303
C      -1.18239499      4.30261511      0.24128993
C      -0.81549434      2.96613015      0.06275025
N      -1.37088964     -0.32256484      0.77124156
C      -2.10852577     -0.10330171     -0.47750432
C      -3.28673162     -1.04687298     -0.75083279
C      -3.06562748     -2.49012458     -0.30927043
C      -3.41638172     -2.69613721      1.16241669
C      -2.47588503     -2.02221600      2.15730303
C      -2.22806469     -0.52598717      1.94071620
H       2.52321445      0.98547837     -3.68609457
H       3.06138969     -0.49506902     -4.51911803
H       4.09127052      0.94167219     -4.49907723
H       3.77183427     -1.61872798      1.22009987
H       4.72649983     -2.86884327      0.39884838
H       5.52768645     -1.45753153      1.11140545
H       0.34253295     -1.57342863      0.10275454
H       1.80316148      0.95465541      0.30907024
H       0.62085120      0.79019598     -0.99969445
H       0.20255876      0.34458783      1.96876457
H      -0.78166265      2.00203867      3.32741397
H      -1.42856320      4.35539468      3.62553959
H      -1.68621626      5.84309146      1.65866948
H      -1.30004482      4.95303197     -0.62214707
H      -0.66656897      2.61060208     -0.95341283
H      -2.50817695      0.91540703     -0.52661238
H      -1.41582639     -0.21061526     -1.32000275
H      -4.19685426     -0.64883026     -0.28400896
H      -3.47536385     -1.03692079     -1.83226272
H      -3.73012106     -3.13302148     -0.90051230
H      -2.04153651     -2.81877347     -0.52042335
H      -3.42177084     -3.77297488      1.37232051
H      -4.44031310     -2.34644059      1.34529933
H      -1.51456724     -2.55326799      2.15827413
H      -2.89414541     -2.16044250      3.16277715
H      -3.16648196      0.03778601      1.87675446
H      -1.73045191     -0.17621266      2.85333368
