24
N#Cc1sc2c(=O)c3ccccc3c(=O)c=2sc1C#N
N       5.27473873      2.50988951      0.20853817
C       4.46489083      1.75779037     -0.14288915
C       3.46376406      0.82409440     -0.56587482
S       2.16533910      1.47526248     -1.54755455
C       0.83954941      0.55042804     -0.89480705
C      -0.44583445      1.29691853     -0.74323352
O      -0.54389381      2.49649856     -0.97602304
C      -1.63104440      0.54926464     -0.28718342
C      -2.86489450      1.20798907     -0.18225078
C      -3.99553367      0.51523822      0.25279900
C      -3.89921020     -0.83415662      0.58565636
C      -2.67222537     -1.49111615      0.48354243
C      -1.53492990     -0.79720391      0.04495221
C      -0.24584775     -1.50468418     -0.05215713
O      -0.17461255     -2.67671787      0.30006742
C       0.93227380     -0.74854949     -0.57438734
S       2.39081920     -1.68349654     -0.76838228
C       3.55718483     -0.48465058     -0.24304512
C       4.65981499     -0.97297406      0.53071452
N       5.55104076     -1.36090702      1.16335434
H      -2.95198999      2.26341397     -0.43818262
H      -4.95121082      1.02953796      0.33280103
H      -4.77951196     -1.37579542      0.92612773
H      -2.60867635     -2.54607390      0.74818201
