50
COc1ccc(OC)c(-c2c(F)ccc3c(N)c(C(=O)NC4CCC4)nnc23)c1
C      -4.36506520     -3.20527831      1.57625000
O      -4.77004949     -2.80445024      0.27327973
C      -4.29276470     -1.60646873     -0.18143013
C      -4.68614941     -1.27649615     -1.47746870
C      -4.27005794     -0.08183110     -2.07195932
C      -3.44992061      0.80542872     -1.37071796
O      -2.98677860      1.99822759     -1.86884615
C      -3.35313859      2.33738977     -3.19954292
C      -3.04733652      0.48749260     -0.05555563
C      -2.18599418      1.39948658      0.72206488
C      -2.77120297      2.45730423      1.43010166
F      -4.10275932      2.62432474      1.41883148
C      -2.00823034      3.34355538      2.16993829
C      -0.62747741      3.18625240      2.20065140
C       0.01049776      2.14140854      1.49088018
C       1.42033232      1.96639126      1.49262651
N       2.24883862      2.80483628      2.28531722
C       1.92269992      0.83850033      0.83330934
C       3.38615522      0.52323346      0.77194540
O       4.23057361      1.29061627      1.22695182
N       3.70388298     -0.67382724      0.15299973
C       5.08522518     -1.13701591     -0.01305749
C       5.22474591     -2.46162367     -0.80184867
C       6.47400779     -1.84742546     -1.46614295
C       5.85782091     -0.46421339     -1.17339789
N       1.13323474     -0.02334985      0.15653423
N      -0.21601531      0.19284373      0.11642277
C      -0.79066241      1.22890639      0.75847491
C      -3.47698776     -0.72397396      0.52524829
H      -4.73202898     -2.50666573      2.33539032
H      -4.81319817     -4.18267112      1.77951752
H      -3.27749399     -3.31907874      1.63488217
H      -5.32369648     -1.95936494     -2.03436498
H      -4.60562952      0.12105792     -3.08301474
H      -4.43785478      2.45369383     -3.29280941
H      -2.89450017      3.30234093     -3.43615201
H      -2.96893911      1.60289025     -3.91497045
H      -2.49252238      4.14632360      2.71717004
H      -0.05097717      3.88564970      2.80175943
H       2.01453747      3.79060273      2.23484988
H       3.24862634      2.65392977      2.08832082
H       2.91877877     -1.21054417     -0.20951369
H       5.63608145     -1.14573857      0.93615555
H       5.40478470     -3.35574010     -0.19919785
H       4.41043403     -2.66629261     -1.50721248
H       6.62069840     -2.09012967     -2.52135719
H       7.40459151     -2.04075142     -0.92029166
H       5.22661657     -0.08417159     -1.98561857
H       6.56773998      0.31423770     -0.88176102
H      -3.15347266     -0.95084116      1.53635828
