68
CCC(C)(C)C(=O)O[C@H]1C[C@@H](C)C=C2C=C[C@H](C)[C@H](CC[C@@H]3C[C@@H](O)CC(=O)O3)[C@H]21
C      -2.60278186      4.33021034     -0.81050325
C      -2.54646666      3.05185259      0.01673942
C      -2.49250975      1.72494814     -0.78384403
C      -3.78186503      1.50638784     -1.59041090
C      -1.29235182      1.70974706     -1.74697871
C      -2.41725064      0.58261512      0.24087115
O      -3.09323127      0.53514740      1.26275970
O      -1.56796854     -0.40543993     -0.15377648
C      -1.51814380     -1.58769715      0.68213632
C      -2.78514257     -2.42501146      0.39561991
C      -2.53013896     -3.88428515      0.00614261
C      -3.79777914     -4.50894988     -0.57957367
C      -1.37616012     -3.98408440     -0.95175200
C      -0.25865944     -3.26480526     -0.75340590
C       0.89194742     -3.43163273     -1.61262959
C       2.09572885     -2.93913494     -1.29469250
C       2.34990244     -2.14476788     -0.04003980
C       2.89915814     -3.08262130      1.04054812
C       1.06721422     -1.36523728      0.36874277
C       1.22774579     -0.53809677      1.66966138
C       2.47504749      0.35753595      1.76150932
C       2.56287284      1.45253346      0.69032269
C       3.88309878      2.21304209      0.81280902
C       3.94784299      3.32750156     -0.22918010
O       4.78279883      2.89923615     -1.30745730
C       2.58864279      3.68474868     -0.80773084
C       1.50654025      3.55894129      0.22310109
O       0.67183931      4.43440461      0.41681963
O       1.48005275      2.38004736      0.89765005
C      -0.16788018     -2.32856005      0.44683842
H      -1.69974516      4.46435374     -1.41228469
H      -2.68207161      5.19707883     -0.14588096
H      -3.47188384      4.34321601     -1.47410688
H      -1.67696115      3.10603433      0.68390402
H      -3.42369011      3.04503604      0.67757822
H      -3.79277499      0.51118915     -2.05083304
H      -3.88885283      2.24258700     -2.39357086
H      -4.66854628      1.57374800     -0.94948876
H      -1.23812673      0.76943748     -2.30799228
H      -1.35417402      2.51169322     -2.48910040
H      -0.34865351      1.81844648     -1.20415452
H      -1.53490149     -1.27162703      1.73362930
H      -3.37671305     -1.94126560     -0.39385474
H      -3.42459927     -2.40954747      1.28795966
H      -2.26870874     -4.45647913      0.90645846
H      -4.62696590     -4.44077830      0.13296197
H      -3.64199075     -5.56905051     -0.80918379
H      -4.10347143     -4.00766860     -1.50517060
H      -1.44033142     -4.70202347     -1.76587119
H       0.77937951     -4.02041788     -2.52008713
H       2.94123290     -3.13154757     -1.95053974
H       3.13011839     -1.41300429     -0.28379379
H       3.16505321     -2.54142558      1.95247535
H       2.17895659     -3.86139524      1.31338819
H       3.80747009     -3.58592800      0.68910004
H       0.87335847     -0.64883276     -0.44309291
H       0.34610981      0.09844730      1.80639717
H       1.23905528     -1.22056530      2.52886580
H       3.37988324     -0.25818501      1.73576410
H       2.45423578      0.83352731      2.75109176
H       2.46421977      1.00924381     -0.30699318
H       4.73602716      1.53074792      0.72367426
H       3.92775591      2.67655096      1.80711210
H       4.41529630      4.21656847      0.21084602
H       5.70157910      2.88533817     -0.98472026
H       2.61221707      4.71500499     -1.18175366
H       2.32502220      3.05566909     -1.66664478
H      -0.01591162     -2.98275202      1.31907801
