39
COc1ccc2cc(C(C)C(=O)OCC(C)=O)ccc2c1
C      -6.42948503     -0.91081943      1.45566873
O      -5.63214333      0.22674018      1.75840701
C      -4.38501638      0.27692811      1.19857103
C      -3.65064244      1.41866220      1.51761238
C      -2.36098568      1.59955099      1.01384438
C      -1.78071037      0.63552925      0.17803567
C      -0.48393508      0.80006829     -0.33821300
C       0.09733787     -0.16717079     -1.17490716
C       1.50059228      0.00859849     -1.72826822
C       1.59164960      1.21167236     -2.66981517
C       2.53485497      0.11468869     -0.61634775
O       3.02720650      1.15817576     -0.20362329
O       2.82301788     -1.12432237     -0.11815815
C       3.85373217     -1.12490122      0.86597546
C       5.24149776     -0.93139122      0.26136354
C       6.35481302     -0.64820364      1.23414767
O       5.45815034     -1.02819332     -0.94761407
C      -0.64248714     -1.31216349     -1.49166053
C      -1.93305987     -1.48741139     -0.98549873
C      -2.51712048     -0.52366504     -0.14932340
C      -3.81654968     -0.68995327      0.36705425
H      -6.63480312     -0.97493859      0.38197524
H      -5.96262262     -1.82967924      1.82549387
H      -7.38771694     -0.79407564      1.97104053
H      -4.08640480      2.17631965      2.16433170
H      -1.81473094      2.50135885      1.28057449
H       0.08075978      1.69596349     -0.08098923
H       1.77492895     -0.87141105     -2.32637593
H       2.59959788      1.29519859     -3.09147199
H       0.88364214      1.11376673     -3.50013809
H       1.37566349      2.15509343     -2.15601540
H       3.83903875     -2.10282643      1.35766673
H       3.66208566     -0.36207856      1.62912765
H       6.45161338     -1.48320563      1.93226986
H       6.14027136      0.27550737      1.77715572
H       7.29681644     -0.52752929      0.69210704
H      -0.22197739     -2.08187627     -2.13581123
H      -2.48098465     -2.38880167     -1.25163386
H      -4.36589428     -1.58784027      0.10344223
