31
CCOc1ccc(N(CC)C(N)=O)cc1
C      -5.43712425      0.55709816      0.80829676
C      -4.07376578     -0.11072728      0.79776675
O      -3.10787606      0.86715511      0.41557659
C      -1.80532893      0.46104369      0.34610640
C      -1.32681233     -0.81902299      0.60640456
C       0.04348625     -1.09718704      0.49328966
C       0.96382817     -0.11026730      0.11156421
N       2.36715925     -0.39309608      0.01098206
C       3.31880214      0.66567430      0.36741604
C       3.96598573      1.29842530     -0.85774896
C       2.92308900     -1.62685694     -0.30922778
N       2.11344936     -2.51726205     -0.94025987
O       4.10002493     -1.93213585     -0.13284020
C       0.46785628      1.17822758     -0.12605889
C      -0.90022638      1.45643348     -0.01750584
H      -6.21706332     -0.15326287      1.09647104
H      -5.67557251      0.96230368     -0.18070990
H      -5.44876621      1.39869017      1.50884745
H      -4.08536424     -0.93620521      0.07667943
H      -3.85371097     -0.49051025      1.80218474
H      -1.98408260     -1.62590416      0.91285335
H       0.37775079     -2.09775311      0.75831359
H       2.83670971      1.42914376      0.98817492
H       4.10665860      0.23094695      0.99525716
H       4.52757830      0.55794774     -1.43646727
H       4.66053409      2.08743138     -0.55322709
H       3.21792548      1.73915669     -1.52352575
H       1.44378604     -2.11653323     -1.58241749
H       2.62011456     -3.31483904     -1.30196822
H       1.12185594      1.98967993     -0.42974634
H      -1.26090102      2.46220547     -0.22059667
