12
Ic1cccc(I)c1
I       3.37727270      0.43376089     -0.42216876
C       1.33592325      0.13146185     -0.16519947
C       0.83900085     -1.16753142     -0.04773434
C      -0.53088776     -1.37205220      0.12478706
C      -1.39939119     -0.28076836      0.17945488
C      -0.89258992      1.01431141      0.06098846
I      -2.18845179      2.63868324      0.14274217
C       0.47532718      1.22845977     -0.11173143
H       1.50368960     -2.02695405     -0.08848592
H      -0.92186959     -2.38252534      0.21669127
H      -2.46406430     -0.45508571      0.31422762
H       0.86604098      2.23823993     -0.20357155
