38
OCC(O)C1OC(Oc2ccccc2)C(O)C(O)C1O
O      -3.59942702     -1.67789704     -1.48996653
C      -2.53657648     -2.28886481     -0.76191751
C      -2.28870041     -1.56932321      0.56995917
O      -3.53914977     -1.43032320      1.26205476
C      -1.55602535     -0.21215413      0.44901396
O      -0.25544157     -0.41484480     -0.11911386
C       0.54900425      0.76859743     -0.09488067
O       1.82431576      0.54365399     -0.71345204
C       2.76207046     -0.15529809     -0.00592253
C       4.04519137     -0.13466810     -0.56044538
C       5.10041694     -0.80476790      0.06091072
C       4.87610576     -1.50748261      1.24174983
C       3.59727983     -1.54268423      1.79446122
C       2.54091756     -0.87051286      1.17142830
C      -0.12431159      1.89342768     -0.90929019
O       0.61650033      3.12341527     -0.83773390
C      -1.53065903      2.14870685     -0.37163891
O      -2.21623496      3.10912225     -1.18954608
C      -2.33546883      0.84825573     -0.34563474
O      -3.61603250      1.09128979      0.25138383
H      -4.36880723     -1.69539279     -0.88892009
H      -2.83935035     -3.32464897     -0.57377759
H      -1.64121030     -2.30589707     -1.38983972
H      -1.65704645     -2.23040991      1.17602494
H      -3.89412828     -0.54205403      1.03248726
H      -1.43287850      0.15507920      1.47854979
H       0.70020600      1.11561235      0.93712732
H       4.22673171      0.40689351     -1.48540386
H       6.09380863     -0.78054100     -0.37912877
H       5.69428804     -2.03350620      1.72685459
H       3.41850608     -2.10145056      2.70986833
H       1.55756021     -0.94257016      1.62351581
H      -0.17429193      1.62274502     -1.97142560
H       1.53041833      2.90080596     -1.10495862
H      -1.48783705      2.59346303      0.63048884
H      -1.57460685      3.83650450     -1.32322500
H      -2.50560162      0.52745521     -1.37886701
H      -3.95953521      1.88026391     -0.22079010
