31
COc1c2occc2c(OC)c2c(=O)cc(C)oc12
C      -1.53583913      3.37891298     -0.94123714
O      -1.74700217      2.02443035     -0.56740258
C      -0.62033935      1.27781282     -0.25908072
C       0.71629561      1.70056061     -0.27211333
O       1.18341578      2.94664978     -0.58692788
C       2.53199687      2.92947120     -0.44929001
C       2.95666898      1.68573226     -0.05351139
C       1.79060697      0.87607072      0.05479032
C       1.54102905     -0.46758744      0.40356092
O       2.59585988     -1.26250324      0.78124678
C       3.15294065     -1.92456018     -0.35519602
C       0.20988198     -0.92597272      0.45257261
C      -0.12765917     -2.31622795      0.83779521
O       0.69978777     -3.18517265      1.07857136
C      -1.55726836     -2.65668768      0.90841634
C      -2.47350188     -1.74256515      0.57323838
C      -3.94306152     -2.02322108      0.61114838
O      -2.16523863     -0.46373214      0.15659885
C      -0.84393107     -0.06298530      0.12372029
H      -0.94297143      3.44892344     -1.85864550
H      -2.51507066      3.82066481     -1.15076165
H      -1.08819801      3.95062455     -0.12222750
H       3.03695275      3.86176767     -0.66175045
H       3.97802571      1.38746781      0.13751338
H       3.87372055     -2.66337070      0.00735820
H       3.68788694     -1.21236252     -0.99220466
H       2.39045787     -2.45097147     -0.93985827
H      -1.80569215     -3.66108973      1.22676376
H      -4.15966797     -3.04459615      0.94098672
H      -4.44141921     -1.33402749      1.30046694
H      -4.37866665     -1.89145540     -0.38454133
