52
C=C1CC[C@@]2(O)C3Cc4ccc(O)c5c4[C@@]2(CCN3CC2CC2)[C@H]1O5.Cl
C      -4.25213071      1.60933558      0.83712411
C      -2.99656162      1.64180258      0.36536937
C      -1.98730180      2.50403084      1.01744967
C      -0.80525331      1.62507815      1.37539336
C      -0.25180662      1.08537119      0.09894172
O       0.10421952      2.16934872     -0.70560987
C       1.01699872      0.26836054      0.28588184
C       0.83979529     -1.07246727      0.88388615
C      -0.53049891     -1.58286882      0.89511775
C      -0.94309345     -2.68437377      1.61384749
C      -2.26800967     -3.11528907      1.58476491
C      -3.18693636     -2.40680034      0.80693926
O      -4.51008613     -2.78754046      0.74067628
C      -2.78799369     -1.28586684      0.07010925
C      -1.48514103     -0.94072151      0.15720727
C      -1.22442476      0.24691191     -0.67651584
C      -0.61406060     -0.07445300     -2.01367793
C       0.77224279     -0.60224866     -1.87608310
N       1.61410364      0.17068114     -1.01395485
C       2.95217772     -0.25972294     -1.06549078
C       3.92594901      0.46517439     -0.21069539
C       5.35750729     -0.05806586     -0.31989038
C       5.03868090      1.27689570     -0.88306323
C      -2.60334258      0.82783612     -0.79885250
O      -3.40365479     -0.37526891     -0.77716220
Cl      0.69025174      0.00000000      0.00000000
H      -4.52704313      2.21000714      1.69004776
H      -4.99463665      0.97999877      0.36354437
H      -2.36775532      3.07101003      1.87272693
H      -1.62640727      3.21725406      0.22051326
H      -1.09995427      0.83745282      2.09688098
H      -0.04162156      2.29619596      1.81978840
H       0.97990400      2.51012062     -0.36359508
H       1.65554337      0.89972386      0.96285095
H       1.23480944     -1.08730756      1.94131033
H       1.46618858     -1.80616094      0.33498180
H      -0.22787018     -3.23814017      2.22120006
H      -2.62298119     -3.97459137      2.13646404
H      -4.80234824     -3.59594512      1.27083989
H      -1.22316395     -0.86105477     -2.53030738
H      -0.65939259      0.86772681     -2.61775962
H       1.24102438     -0.56642601     -2.90314288
H       0.70110784     -1.67311438     -1.55122596
H       3.29861436     -0.13526385     -2.13457236
H       3.03467383     -1.35463478     -0.88193829
H       3.68594203      0.81884639      0.79918838
H       5.98937919     -0.08875744      0.57302101
H       5.56855622     -0.87588213     -1.03757657
H       4.91772869      1.44806346     -1.96491413
H       5.44163287      2.15714471     -0.34470958
H      -2.79330928      1.29859446     -1.77401689
H      -0.69025174      0.00000000      0.00000000
