32
Cc1cc(N=Nc2ccccc2C)ccc1N
C      -4.15833951     -0.57269347     -1.43726409
C      -3.23100658     -0.16078049     -0.32753469
C      -1.88199189      0.10351670     -0.62929158
C      -0.98145289      0.51943001      0.35930761
N       0.36114628      0.81833221      0.06512571
N       0.95544368     -0.19773800     -0.35936672
C       2.30493691      0.10474140     -0.62791637
C       2.64457826      0.87039383     -1.75373234
C       3.97795382      1.15475293     -2.04962724
C       4.98845962      0.66782268     -1.22519716
C       4.66787250     -0.10508887     -0.10830490
C       3.32928608     -0.39778846      0.19702606
C       2.99778067     -1.23296228      1.40147513
C      -1.45384100      0.70691354      1.65720374
C      -2.79004897      0.44339928      1.97005695
C      -3.67642549     -0.04327734      1.00097276
N      -5.03096768     -0.18767889      1.33651817
H      -4.52288937     -1.59075292     -1.26694296
H      -5.00817561      0.11469471     -1.49945663
H      -3.65503317     -0.55864280     -2.40989963
H      -1.52113272     -0.00164934     -1.65001103
H       1.85645637      1.24852529     -2.39973684
H       4.22532095      1.75418712     -2.92156578
H       6.02860682      0.88802941     -1.45222898
H       5.47032168     -0.47982978      0.52330921
H       2.43889921     -2.12595692      1.10343751
H       2.40307055     -0.65196575      2.11375649
H       3.90306088     -1.56769011      1.91890460
H      -0.77932285      1.06907322      2.42807808
H      -3.13475060      0.62244856      2.98520612
H      -5.53848041     -0.82989221      0.73745262
H      -5.18933554     -0.38187325      2.32024621
