25
C[Si](C)(C)CCCN
C      -1.81583561      1.60589016      0.31777969
Si     -1.42316669     -0.18299007     -0.07987018
C      -2.65674791     -0.83141738     -1.33773924
C      -1.51268826     -1.21947400      1.47829815
C       0.32963328     -0.30098722     -0.82954955
C       1.46093470      0.19724369      0.07624704
C       2.81903420      0.05445085     -0.61082605
N       3.88129977      0.52747154      0.26849783
H      -1.12420381      1.99856042      1.06889761
H      -2.83299272      1.69960618      0.70969295
H      -1.73641042      2.22761824     -0.57889531
H      -2.61516674     -0.24155159     -2.25815479
H      -2.43998776     -1.87402435     -1.58837921
H      -3.67523733     -0.77830746     -0.94190586
H      -2.52209947     -1.19646088      1.89967839
H      -0.81904299     -0.84387147      2.23626608
H      -1.25517224     -2.26117923      1.26515188
H       0.50483846     -1.35055253     -1.09370697
H       0.32790495      0.27154719     -1.76456604
H       1.29072473      1.24904666      0.34070284
H       1.46424659     -0.36964351      1.01636869
H       3.00508511     -0.99498176     -0.86302011
H       2.83520760      0.63037537     -1.54261076
H       3.73588725      1.51318765      0.48290069
H       4.77395532      0.47044350     -0.21993415
