34
CN1CCOc2cc(OC(=O)c3ccccc3)cnc21
C       4.53945021     -1.00560998      1.64636263
N       4.09487398      0.05510247      0.75535563
C       4.82480801      0.23440522     -0.49569995
C       4.29896622      1.48261016     -1.20127595
O       2.91784979      1.35031681     -1.56189879
C       2.16455797      0.77063828     -0.56636193
C       0.78466729      0.82439044     -0.74820465
C      -0.03553121      0.23021772      0.19784466
O      -1.41826948      0.35851080      0.02333610
C      -2.19984749     -0.76783401      0.21356777
O      -1.80991082     -1.89012966      0.49621511
C      -3.63593323     -0.42719286      0.01229346
C      -4.57790383     -1.46040520      0.12014196
C      -5.93757232     -1.19730193     -0.05742279
C      -6.36484217      0.09830859     -0.34288679
C      -5.43571165      1.13238943     -0.45111709
C      -4.07384984      0.87374668     -0.27431050
C       0.54890289     -0.37448445      1.29886523
N       1.88854314     -0.44136537      1.49516804
C       2.70007635      0.11526814      0.56461111
H       4.13040234     -0.88110167      2.65533146
H       4.26271112     -1.99447862      1.26288841
H       5.63039029     -0.97932084      1.74597965
H       5.89348663      0.35837647     -0.28794586
H       4.70217126     -0.65021999     -1.13414957
H       4.86241356      1.65040688     -2.12501409
H       4.41352849      2.37658879     -0.57533989
H       0.36577486      1.32390052     -1.61470758
H      -4.25643083     -2.47663794      0.34274798
H      -6.66213906     -2.00371612      0.02734942
H      -7.42408557      0.30261884     -0.48084612
H      -5.77248497      2.14244690     -0.67311025
H      -3.37280121      1.69985992     -0.36283506
H      -0.04626074     -0.83030441      2.08400165
