43
CNn1cc(C(=O)O)c(=O)c2cc(F)c(N3CCN(C)CC3)cc21
C       2.98330447     -2.75732340      0.59553043
N       2.76276722     -1.65626404      1.52871982
N       2.88593426     -0.42496958      0.87505720
C       4.10562060      0.21943640      0.95730265
C       4.39539585      1.42400672      0.44492564
C       5.75662066      1.97165063      0.61103948
O       6.65245351      1.38348302      1.19889381
O       5.94215394      3.18899612      0.05561147
C       3.30635160      2.13068362     -0.26156376
O       3.51367079      3.23363070     -0.76391515
C       1.97432977      1.48401087     -0.33863229
C       0.93189154      2.14644770     -0.98759141
C      -0.32290925      1.54883902     -1.05928555
F      -1.28830507      2.23928077     -1.68489056
C      -0.58464508      0.29123248     -0.48551294
N      -1.82325515     -0.37682165     -0.53479689
C      -2.81531272      0.07552522     -1.53575966
C      -4.00073491     -0.91801531     -1.61169251
N      -4.66771687     -1.20529961     -0.32120699
C      -5.46713270     -0.07142159      0.13730784
C      -3.64131454     -1.58687263      0.67274252
C      -2.43236177     -0.62543542      0.79460041
C       0.49921646     -0.35501038      0.14925188
C       1.78245590      0.21709107      0.23991769
H       2.91319757     -3.70654397      1.13591044
H       2.24013291     -2.77464378     -0.20783683
H       3.98306085     -2.70841617      0.15084398
H       1.86587766     -1.75044410      2.00280852
H       4.86036270     -0.35242867      1.49596769
H       5.14198223      3.55558315     -0.39413550
H       1.07855272      3.12385683     -1.43875779
H      -3.19845314      1.06976162     -1.27794832
H      -2.35249545      0.12620897     -2.52883543
H      -3.62905528     -1.87057004     -2.01241024
H      -4.73608797     -0.55677737     -2.34112147
H      -4.87747859      0.83228222      0.32019749
H      -6.24145480      0.17072346     -0.59913554
H      -5.99075113     -0.32756798      1.06513541
H      -3.26228315     -2.57824962      0.39024732
H      -4.10421599     -1.71900710      1.65850439
H      -1.71615106     -1.08479986      1.48531154
H      -2.75013297      0.32615009      1.23921527
H       0.32691435     -1.35199842      0.54425018
