20
COP(=O)(OC)C(O)C(Cl)(Cl)Cl
C      -1.06824123      2.30465398     -0.60943427
O      -0.30479840      1.11163122     -0.64120719
P      -0.20794222      0.27992025      0.74790968
O      -0.00057888      1.15665159      1.94225180
O      -1.62468244     -0.49707110      0.78477133
C      -2.01260207     -1.34296293     -0.27868120
C       1.05012820     -0.95885552      0.40638004
O       0.93332777     -1.32099265     -1.00063516
C       2.46480437     -0.49372042      0.78005515
Cl      2.91535076      1.02770384     -0.04907359
Cl      3.66610806     -1.74906399      0.26031578
Cl      2.67432170     -0.31373938      2.54780041
H      -2.06618716      2.10785831     -0.20849333
H      -1.16443533      2.68478173     -1.62940373
H      -0.56009309      3.05484772      0.00198044
H      -3.08228431     -1.54785453     -0.18517158
H      -1.47257226     -2.29074390     -0.21745932
H      -1.83461349     -0.86787812     -1.24639766
H       0.80621529     -1.86320679      0.97570863
H       0.88877473     -0.48195930     -1.50748429
