23
CC1(C)OC(=O)c2cc(C#N)ccc21
C      -2.16864708      0.73592423      1.21143586
C      -1.52637025     -0.15706785      0.15332204
C      -2.31582609     -0.14165557     -1.15284844
O      -1.50299326     -1.51703971      0.65666429
C      -0.23541101     -2.01383718      0.76215693
O       0.08646711     -3.11733478      1.15171878
C       0.66378670     -0.95993426      0.31499019
C       2.04656688     -0.99235266      0.24094069
C       2.69475464      0.15478591     -0.22520950
C       4.12517022      0.18145178     -0.32415706
N       5.28204957      0.21087002     -0.40709763
C       1.94478716      1.28934724     -0.59965106
C       0.54682669      1.28877910     -0.51241210
C      -0.08240292      0.14442727     -0.04847695
H      -1.62734492      0.67503891      2.16319737
H      -3.19576641      0.41445135      1.41828558
H      -2.19049493      1.78543514      0.89907536
H      -2.34594528      0.85854117     -1.59806599
H      -1.87952698     -0.82864286     -1.88786948
H      -3.34551723     -0.47846528     -0.98731752
H       2.59388708     -1.88333142      0.53758348
H       2.45347112      2.18244463     -0.96282116
H      -0.02152084      2.16816481     -0.80344368
