18
O=c1[nH]c2ccccc2[nH]c1=O
O      -3.50498912      1.27193017      0.31187778
C      -2.43703595      0.67766360      0.24814552
N      -1.25765260      1.33675675     -0.02139525
C      -0.02128045      0.69176690     -0.10167754
C       1.12844274      1.42925844     -0.37881111
C       2.36132013      0.77838528     -0.45770601
C       2.44152814     -0.60201706     -0.26024685
C       1.28937767     -1.34047172      0.01738818
C       0.05902953     -0.69038053      0.09603581
N      -1.09728240     -1.42323431      0.37341861
C      -2.34807471     -0.85338073      0.46715582
O      -3.34256869     -1.52338348      0.71172992
H      -1.33213403      2.33490472     -0.16180884
H       1.08174329      2.50337789     -0.53471777
H       3.26272184      1.34778004     -0.67365122
H       3.40511970     -1.10292569     -0.32309345
H       1.36743330     -2.41343903      0.16861291
H      -1.05569841     -2.42259124      0.51874350
