61
CC(=O)OCC(=O)C1(O)CCC2C3CCC4=CC(=O)CCC4(C)C3C(O)CC21C
C       6.77478115     -0.07322788      2.32156264
C       5.39492935      0.30017668      1.87629136
O       4.37565636     -0.29262104      2.20065312
O       5.44208780      1.39343596      1.06719630
C       4.17730003      1.76546365      0.51866167
C       3.74637285      0.86689875     -0.64259799
O       4.52830121      0.06321677     -1.15826361
C       2.29690641      1.03904648     -1.15026560
O       1.94254523      2.42715622     -1.08486478
C       2.12474330      0.57898243     -2.62610135
C       0.70730157     -0.01263948     -2.74039771
C       0.05680014      0.27779761     -1.39167403
C      -1.15448782     -0.56545395     -0.97928862
C      -2.25957029     -0.53097514     -2.05473634
C      -3.52498980     -1.27354775     -1.62298753
C      -3.96409474     -0.74545897     -0.28165701
C      -5.10903770     -0.04603912     -0.18033973
C      -5.42864394      0.73794235      1.03716997
O      -6.49992880      1.33478119      1.10892921
C      -4.36342679      0.85152129      2.09742041
C      -3.61668943     -0.46621508      2.19562274
C      -2.94892260     -0.90913440      0.86226450
C      -2.59462454     -2.40437704      1.07622606
C      -1.68617383     -0.06701139      0.41679526
C      -0.53854593      0.03082717      1.46239730
O      -0.97294954      0.76087806      2.61003713
C       0.72912069      0.74470983      0.94463021
C       1.23455436      0.18366864     -0.39076938
C       1.74733509     -1.26586222     -0.18115335
H       7.23442799      0.76570352      2.85033548
H       6.71657785     -0.92457063      3.00593364
H       7.37732960     -0.36035174      1.45610139
H       4.29005762      2.78132905      0.12661994
H       3.41346521      1.79333756      1.29994013
H       2.39394062      2.89314905     -1.81212609
H       2.84936621     -0.18816579     -2.91985243
H       2.23748314      1.41284872     -3.32835675
H       0.15324756      0.44676494     -3.56573304
H       0.75994200     -1.08929805     -2.93842517
H      -0.29209451      1.32227647     -1.43438416
H      -0.83220711     -1.60766885     -0.89722005
H      -2.51297042      0.51240245     -2.28574215
H      -1.89277742     -0.97805797     -2.98608132
H      -3.34579206     -2.35260079     -1.57357364
H      -4.29959293     -1.12869460     -2.38589069
H      -5.80194455      0.07813144     -1.00525841
H      -4.84938031      1.06534306      3.05563388
H      -3.69994032      1.68594557      1.85189371
H      -2.90105086     -0.44027351      3.02109069
H      -4.35143230     -1.23026922      2.49415082
H      -1.95053156     -2.53542707      1.95276292
H      -3.49987743     -3.00052384      1.24679327
H      -2.07986950     -2.86143920      0.22822198
H      -2.04015607      0.96577101      0.26865275
H      -0.26811322     -0.96946766      1.81219486
H      -1.11256455      1.68713372      2.34730576
H       1.50676208      0.67498801      1.71451561
H       0.51343698      1.81738306      0.85431574
H       2.56645209     -1.28518633      0.54439696
H       0.97780464     -1.93720753      0.20856947
H       2.12335177     -1.71724448     -1.10437963
