22
Clc1ccc(-c2cc(Cl)c(Cl)c(Cl)c2)cc1
Cl      5.26612887     -0.36737977     -0.31909062
C       3.55604881     -0.24807442     -0.18149307
C       2.84562631     -1.22964930      0.50302016
C       1.45472963     -1.13159087      0.61376391
C       0.75618345     -0.05274706      0.04378084
C      -0.70750815      0.04935702      0.16153283
C      -1.31433752      1.21166955      0.65985461
C      -2.70773691      1.31204744      0.77327597
Cl     -3.33949455      2.79526991      1.40371135
C      -3.53137043      0.24634899      0.38868215
Cl     -5.25649416      0.36669576      0.52744386
C      -2.93440071     -0.91845207     -0.11018082
Cl     -3.85689842     -2.29324904     -0.61559396
C      -1.54035091     -1.01252559     -0.22097902
C       1.49721116      0.92567009     -0.64202412
C       2.88806348      0.82966588     -0.75509714
H       3.36450036     -2.07114121      0.95467518
H       0.92027378     -1.90477559      1.16322055
H      -0.69387925      2.04944183      0.97687362
H      -1.09980819     -1.92431235     -0.62334611
H       0.99398455      1.77124543     -1.10799278
H       3.43952879      1.59648538     -1.29287276
