19
COc1ccc(C)cc1
C      -3.33604811     -0.30992465      0.43911907
O      -2.41533657     -0.48885562     -0.62933393
C      -1.09728783     -0.24725922     -0.35509178
C      -0.23089875     -0.44297165     -1.43250208
C       1.14293981     -0.23202364     -1.29164822
C       1.67217978      0.16953266     -0.06158671
C       3.14153545      0.43015427      0.08647287
C       0.80098959      0.37961398      1.01323346
C      -0.57529613      0.16768768      0.86971193
H      -4.33577277     -0.54597562      0.06189142
H      -3.12147274     -0.99631709      1.26492609
H      -3.34664756      0.73026920      0.78112625
H      -0.63025244     -0.76051520     -2.39250741
H       1.79380416     -0.38485896     -2.14921134
H       3.72224697     -0.21771542     -0.57855990
H       3.47329185      0.22525375      1.10978589
H       3.36256678      1.47435733     -0.15498165
H       1.18824362      0.71038859      1.97452555
H      -1.20878510      0.33915961      1.73311986
