17
O=C(O)c1cncc(C(=O)O)c1
O       3.59904316     -0.09981113      0.35542953
C       2.48931583     -0.59704632      0.34885732
O       2.31187207     -1.92623876      0.43555891
C       1.21626560      0.13913838      0.24956839
C       1.25964226      1.52476419      0.15389095
N       0.15645214      2.30834482      0.05762385
C      -1.04282139      1.67428065      0.05731227
C      -1.18682827      0.29518951      0.14876878
C      -2.54807667     -0.26993026      0.13756004
O      -3.58097174      0.36644146      0.05425702
O      -2.55157524     -1.61041816      0.23155945
C      -0.03304627     -0.48757528      0.24686979
H       3.22109306     -2.28994823      0.49509035
H       2.20454722      2.06431297      0.15132957
H      -1.90662800      2.33128275     -0.02111699
H      -3.50191392     -1.85337233      0.21309031
H      -0.10636983     -1.56941426      0.32009567
