33
COc1c(Cl)cccc1NS(=O)(=O)c1ccc(N)cc1
C      -0.29325898     -0.26143180     -2.42586310
O      -1.10077662      0.84793806     -2.02450136
C      -1.87577695      0.57531001     -0.92115657
C      -2.89165462     -0.38966741     -0.89235506
Cl     -3.31300153     -1.34304196     -2.26900388
C      -3.64493129     -0.57679085      0.27174944
C      -3.41270448      0.21471205      1.39664544
C      -2.43230572      1.20485390      1.35988867
C      -1.66512867      1.38667358      0.20784434
N      -0.67047854      2.41518280      0.15156314
S       0.64907038      2.35905619      1.20257222
O       0.18371712      2.31335013      2.57233086
O       1.56637143      3.38870914      0.76029316
C       1.39771620      0.78870072      0.83127166
C       1.00828460     -0.35221266      1.53554423
C       1.60351535     -1.58023588      1.23658179
C       2.62625047     -1.66768352      0.28633087
N       3.12359757     -2.91759113     -0.09767268
C       2.98538737     -0.52017703     -0.42820903
C       2.39478844      0.71365686     -0.14338060
H      -0.15483636     -1.00777320     -1.63560079
H       0.69080698      0.12752363     -2.70364193
H      -0.72424439     -0.72726683     -3.31629991
H      -4.43323255     -1.32599265      0.30110443
H      -4.01164888      0.07739937      2.29418457
H      -2.28847499      1.84319028      2.22896751
H      -0.38259549      2.66702609     -0.79649944
H       0.23839686     -0.29953369      2.30184981
H       1.26568243     -2.47166736      1.75954885
H       3.07339016     -3.62225958      0.63228840
H       4.04383266     -2.88083068     -0.52617440
H       3.73524571     -0.57807400     -1.21353834
H       2.70899633      1.59894741     -0.69160120
