62
COc1cncnc1N1CCN(CCc2c[nH]c3ccc(CS(=O)(=O)N(C)C)cc23)CC1
C      -5.95227870     -2.03493899      3.46620495
O      -5.34750399     -1.36337099      2.36980074
C      -6.12417818     -1.13513589      1.26651389
C      -7.42220854     -1.58111725      1.09142322
N      -8.18055938     -1.31605491      0.00893545
C      -7.59180253     -0.56018968     -0.92335869
N      -6.34628221     -0.06967181     -0.87427397
C      -5.59943051     -0.36999450      0.21313886
N      -4.27772596      0.13444897      0.28286775
C      -3.27187949     -0.94364420      0.15732705
C      -1.84975183     -0.36406870      0.34520159
N      -1.53810184      0.73857631     -0.59836125
C      -0.19117693      1.27170363     -0.31896376
C       0.34703188      2.17367827     -1.44355868
C       1.75751339      2.61764504     -1.19037540
C       2.16261826      3.86964298     -0.77049973
N       3.52722885      3.86764061     -0.66430001
C       4.02872509      2.63091428     -0.99654745
C       5.34854236      2.17076767     -1.02845231
C       5.56289097      0.84004598     -1.40552765
C       4.49959087     -0.01202648     -1.73611937
C       4.77125397     -1.43745440     -2.14038679
S       4.11593403     -2.64793159     -0.97231800
O       4.68251571     -3.92881273     -1.35307167
O       2.67703310     -2.50327088     -0.88176059
N       4.78251244     -2.25163287      0.52451523
C       4.19840058     -1.15253625      1.30840997
C       6.22901654     -2.42179229      0.70836719
C       3.18756411      0.49488735     -1.72908892
C       2.94274840      1.82788508     -1.33820441
C      -2.58514764      1.78100105     -0.47455594
C      -4.01434139      1.22282640     -0.68024858
H      -5.21542375     -2.08850092      4.27357124
H      -6.22568278     -3.06020210      3.19628668
H      -6.81859560     -1.48028485      3.84219615
H      -7.93118766     -2.18676872      1.83279889
H      -8.17643141     -0.32096771     -1.80488938
H      -3.41355270     -1.72711847      0.90913863
H      -3.34609894     -1.41780991     -0.83100627
H      -1.13135262     -1.17979865      0.19974013
H      -1.74511077     -0.01301496      1.38073065
H       0.50226243      0.42748469     -0.20878772
H      -0.17299111      1.80849439      0.63915721
H       0.30903578      1.63754376     -2.40044554
H      -0.28547137      3.06195859     -1.55672561
H       1.59416847      4.76203166     -0.54406248
H       4.08984841      4.65834597     -0.38267937
H       6.18123990      2.81779940     -0.77185282
H       6.58819587      0.47442797     -1.43636167
H       5.84467930     -1.63371681     -2.23426164
H       4.31038286     -1.64749583     -3.11168919
H       4.77631723     -0.23236689      1.19636600
H       3.15795221     -0.95644409      1.03881950
H       4.20285979     -1.43206587      2.36726792
H       6.78145196     -1.61562003      0.21875376
H       6.56777356     -3.38365080      0.31453266
H       6.47382155     -2.41162534      1.77577536
H       2.34670038     -0.13777276     -2.00773889
H      -2.52919262      2.25680989      0.51365643
H      -2.42682251      2.56155622     -1.22608860
H      -4.11037052      0.86742661     -1.71558082
H      -4.72715677      2.04332636     -0.52831925
