9
NC(=O)C(Cl)Cl
N       1.31092653     -0.10174574     -0.39531870
C       0.32287135     -0.26178081      0.54188438
O       0.60508809     -0.72062653      1.64807354
C      -1.10021962      0.12398634      0.14357587
Cl     -1.11936397      1.80489800     -0.43743867
Cl     -1.67071256     -0.97836386     -1.12626038
H       2.26272887     -0.30868448     -0.12085693
H       1.15256548      0.39652913     -1.26264380
H      -1.76388417      0.04578795      1.00898469
