34
CCCCN(C)N=Nc1ccc(C(=O)O)cc1
C      -4.27115368     -1.55852105     -1.73612904
C      -3.86308271     -0.18753957     -1.21953477
C      -2.84994618     -0.29734088     -0.08230238
C      -2.42053922      1.08543626      0.41657428
N      -1.42693570      1.01695343      1.49337331
C      -1.90244210      0.73522491      2.83945107
N      -0.13190164      0.64843725      1.25453362
N       0.22663180      0.83794387      0.07252893
C       1.56817051      0.46669193     -0.11721043
C       2.45064073      1.39345772     -0.68392584
C       3.78800955      1.05816020     -0.92328113
C       4.25769852     -0.22300935     -0.60398306
C       5.66087166     -0.63389282     -0.85435607
O       6.14150586     -1.72254734     -0.59572995
O       6.39352749      0.34025649     -1.42771821
C       3.37960409     -1.15989824     -0.05059210
C       2.04540565     -0.81502811      0.19499321
H      -5.01606685     -1.45507600     -2.53492806
H      -3.41443567     -2.10039595     -2.14171713
H      -4.71109028     -2.16440464     -0.93603034
H      -3.44264801      0.39564858     -2.04616093
H      -4.75642285      0.34261048     -0.86903884
H      -3.28580519     -0.87242954      0.74422293
H      -1.97459752     -0.85982001     -0.42241337
H      -2.01336430      1.68575187     -0.40593135
H      -3.28100587      1.63935022      0.79866932
H      -2.63556625      1.50611049      3.12521238
H      -1.05684727      0.74832713      3.54200993
H      -2.37742312     -0.25566391      2.86407969
H       2.08931808      2.38861789     -0.93801651
H       4.44929530      1.80134572     -1.36576249
H       7.28296058     -0.06937452     -1.53500379
H       3.72439484     -2.16358082      0.18822852
H       1.37323977     -1.55180169      0.63397678
