42
CC(O)C(=O)NCCCCCCNC(=O)C(C)O
C      -5.98850030     -1.63410277      0.59154970
C      -4.74681333     -1.68202213     -0.28360960
O      -3.67240557     -2.27913336      0.44284965
C      -4.36431979     -0.28639679     -0.81509072
O      -5.16512053      0.63095242     -0.95796079
N      -3.02555067     -0.19456999     -1.14350283
C      -2.48689310      0.95928685     -1.82933972
C      -0.97338026      1.06853063     -1.66919002
C      -0.56091380      1.38190205     -0.22796680
C       0.95827355      1.52039475     -0.10544877
C       1.37326731      1.84724504      1.33157730
C       2.87717719      2.07432414      1.48161789
N       3.63759158      0.85861503      1.29602295
C       4.28829103      0.54476804      0.12148140
O       4.30337610      1.26422045     -0.87154884
C       4.96885881     -0.83244697      0.15878595
C       3.96806351     -1.91480298     -0.20734689
O       5.47780843     -1.11801684      1.46334057
H      -6.85287420     -1.25136771      0.03975413
H      -6.22887941     -2.63176088      0.97348864
H      -5.82743884     -0.98862759      1.46233431
H      -4.94042161     -2.31602417     -1.15600774
H      -3.52635911     -1.72334941      1.22982638
H      -2.50913945     -1.06937344     -1.15756019
H      -2.98456572      1.86581096     -1.46747123
H      -2.73988900      0.84491089     -2.88917286
H      -0.49652107      0.13574556     -1.99453188
H      -0.60861509      1.86482711     -2.32920995
H      -0.90806547      0.58675092      0.44255155
H      -1.04249603      2.31234100      0.09635681
H       1.31019342      2.31200556     -0.77808412
H       1.42989738      0.58507892     -0.42792446
H       0.85334338      2.75705618      1.65560312
H       1.05237597      1.03803111      1.99915847
H       3.09205121      2.42260394      2.49755084
H       3.22366265      2.84321428      0.78265762
H       3.69288878      0.17845210      2.04892828
H       5.81038184     -0.83061925     -0.54170551
H       3.14499837     -1.95465949      0.51534961
H       3.54084775     -1.74182741     -1.20005610
H       4.44730977     -2.89956407     -0.19617876
H       6.19850435     -0.48091730      1.61812259
