40
CCCCCCCCCc1ccc(O)cc1
C      -6.87006573     -0.40996031     -0.51855594
C      -5.39835859     -0.05442198     -0.66608216
C      -4.87888419      0.68940618      0.56484094
C      -3.43240303      1.17079619      0.41992622
C      -2.41723186      0.02914562      0.33150215
C      -0.98355487      0.56408273      0.30367003
C       0.03351420     -0.57470951      0.21141894
C       1.46642378     -0.04014176      0.18407161
C       2.48213426     -1.18084275      0.09166380
C       3.89910037     -0.66417580      0.06397461
C       4.60607388     -0.46676076      1.25818152
C       5.91109661      0.02710642      1.23252513
C       6.50957877      0.32871487      0.01566108
O       7.78563453      0.80919062      0.03655625
C       5.82341081      0.14641001     -1.18041698
C       4.51719339     -0.34793245     -1.15444967
H      -7.22162713     -0.94421419     -1.40677950
H      -7.03252223     -1.05363404      0.35187509
H      -7.48160613      0.49019192     -0.39989743
H      -5.26663554      0.56593515     -1.56002876
H      -4.82994639     -0.97739318     -0.82195554
H      -4.96609457      0.04769789      1.45009284
H      -5.51338022      1.56573738      0.74734187
H      -3.34556177      1.81343567     -0.46465241
H      -3.19254537      1.79621930      1.28887607
H      -2.54193463     -0.64138980      1.19025111
H      -2.59538283     -0.56309834     -0.57291081
H      -0.85978608      1.23778048     -0.55297244
H      -0.79327156      1.15333918      1.20896004
H      -0.09085076     -1.24842185      1.06793323
H      -0.15585348     -1.16391904     -0.69409032
H       1.65381460      0.55355517      1.08779584
H       1.58872171      0.63802441     -0.67000268
H       2.29645215     -1.78125970     -0.80799439
H       2.36108562     -1.86537113      0.94086281
H       4.14423690     -0.69552925      2.21574722
H       6.45762318      0.17729756      2.15896053
H       8.06774276      0.97160688     -0.87817023
H       6.28222304      0.38242547     -2.13495534
H       3.98143641     -0.48492326     -2.09111501
