26
COP(=S)(OC)Oc1ccc([N+](=O)[O-])cc1
C       2.80038128      2.31738815     -0.98329600
O       1.75644554      1.37439730     -0.84197133
P       1.91138917      0.21889936      0.28349041
S       2.06895519      0.80779570      2.12616424
O       3.17640949     -0.60757224     -0.30472885
C       3.52201602     -1.83280357      0.31087217
O       0.69091174     -0.77641139     -0.07956406
C      -0.64216716     -0.49089652      0.00354723
C      -1.50188429     -1.57765400     -0.18314123
C      -2.88702065     -1.40557226     -0.12327828
C      -3.40941955     -0.13059992      0.12223446
N      -4.86363257      0.06217600      0.18504944
O      -5.58393730     -0.93531948      0.03637374
O      -5.28505089      1.21091481      0.38099906
C      -2.55329893      0.96321143      0.30413563
C      -1.16725114      0.77852625      0.24171575
H       2.79810636      3.00958781     -0.13766332
H       2.63196590      2.88719134     -1.90073045
H       3.77042181      1.81868265     -1.05487995
H       4.00846976     -1.64562441      1.27136993
H       4.22382055     -2.36235238     -0.33854555
H       2.63845451     -2.45996197      0.45602168
H      -1.09217514     -2.56717097     -0.37533588
H      -3.53602835     -2.26650829     -0.26947683
H      -2.94466795      1.96132784      0.49307816
H      -0.53121341      1.64834874      0.37755984
