36
CCOP(=S)(OCC)Oc1ncn(-c2ccccc2)n1
C      -4.29211562      3.04096237     -0.12793468
C      -3.47844477      2.13306842      0.77147425
O      -3.40910229      0.84981492      0.17164319
P      -2.34108200     -0.22398327      0.76285829
S      -2.65978812     -0.74992635      2.60776837
O      -2.44718446     -1.37737420     -0.37065765
C      -3.64913998     -2.12067800     -0.46878555
C      -3.63707230     -2.88536122     -1.77657987
O      -0.94921774      0.49963376      0.40436907
C       0.22069538     -0.12687874      0.49652290
N       0.44180165     -1.42018346      0.83637264
C       1.75148942     -1.50632763      0.77837841
N       2.30023346     -0.29987676      0.41104590
C       3.66496088      0.04189418      0.23036069
C       4.00162395      1.34904305     -0.15404305
C       5.33917474      1.70513980     -0.33712409
C       6.34593109      0.76291052     -0.13851416
C       6.01847796     -0.53716750      0.24348660
C       4.68188400     -0.90266868      0.42903975
N       1.30194648      0.60013101      0.22600763
H      -4.37600469      4.04304019      0.30180571
H      -5.29809705      2.63510070     -0.27761993
H      -3.82938747      3.11821941     -1.11739761
H      -3.96042624      2.05024847      1.75000400
H      -2.47281953      2.54366084      0.90408848
H      -3.71100090     -2.82022016      0.37008444
H      -4.51318649     -1.44974929     -0.43701868
H      -3.55696933     -2.19706703     -2.62449537
H      -4.54772822     -3.48019413     -1.88949578
H      -2.77039330     -3.55292375     -1.82533326
H       2.33125287     -2.39264872      0.98712824
H       3.23325416      2.10365018     -0.31543237
H       5.59373903      2.71947640     -0.63486768
H       7.38694277      1.04246240     -0.28135805
H       6.80844946     -1.26883369      0.39770552
H       4.47730320     -1.92639405      0.72719697
