41
CN1[C@H]2CC[C@@H]1C[C@H](OC(=O)c1c[nH]c3ccccc13)C2
C      -5.14458839      0.14767861      0.56149439
N      -3.87147207     -0.56726592      0.49884325
C      -3.25874445     -0.52624339     -0.84063611
C      -2.60510384      0.85592434     -0.92641405
C      -2.31702393      1.23539957      0.52632694
C      -2.83126486      0.04657968      1.34371759
C      -1.75469365     -1.03482478      1.55689667
C      -1.17863953     -1.59119912      0.24182529
O      -0.10461007     -0.74773070     -0.23081078
C       1.12180944     -0.93872122      0.34195671
O       1.35093138     -1.76900861      1.21323651
C       2.12956747     -0.03133632     -0.19612838
C       1.92460574      0.92647936     -1.17716689
N       3.10708325      1.57382449     -1.40902601
C       4.09385530      1.06503073     -0.59897269
C       5.44443557      1.42020109     -0.49510675
C       6.22974674      0.72385899      0.42766232
C       5.68399763     -0.28686622      1.21389727
C       4.33196141     -0.62901329      1.09701416
C       3.51358879      0.05673117      0.17352707
C      -2.23130193     -1.67377906     -0.87798819
H      -5.87813946     -0.33557307     -0.09320899
H      -5.07715482      1.20184221      0.27382643
H      -5.55143515      0.09960910      1.57758655
H      -3.98788338     -0.68110835     -1.64423323
H      -1.70211279      0.86427271     -1.54431708
H      -3.30113900      1.58397389     -1.36024288
H      -1.25653697      1.44470658      0.69714928
H      -2.87270076      2.14603894      0.78048728
H      -3.21235879      0.36074015      2.32223649
H      -0.95731697     -0.62450624      2.18710912
H      -2.20847617     -1.86533843      2.11412705
H      -0.77838945     -2.59998198      0.40405985
H       1.03287494      1.19675067     -1.72748337
H       3.24423470      2.31953636     -2.07760130
H       5.87406465      2.20728066     -1.10619031
H       7.28265370      0.97554697      0.53247709
H       6.31045490     -0.81794094      1.92634347
H       3.91798524     -1.42067704      1.71686951
H      -1.73854432     -1.68780292     -1.85791228
H      -2.77422010     -2.62308869     -0.77610383
