16
O=c1nc[nH]c2cccnc12
O      -1.85828667      2.37087210      0.97446248
C      -1.64019248      1.24961177      0.52684964
N      -2.67989614      0.38586318      0.20622508
C      -2.38038953     -0.77725042     -0.25961217
N      -1.13756914     -1.28581626     -0.48559762
C      -0.03376847     -0.48975039     -0.19293450
C       1.27551609     -0.92098766     -0.38964408
C       2.33334636     -0.06810334     -0.07364636
C       2.04664939      1.19244654      0.43044021
N       0.79513948      1.64831812      0.63572511
C      -0.21769983      0.79703960      0.31945909
H      -3.18569309     -1.48369253     -0.52274857
H      -1.00796914     -2.21674298     -0.85610145
H       1.48663412     -1.91027915     -0.78499201
H       3.36311471     -0.37937158     -0.21732985
H       2.84106434      1.88784300      0.68944500
