28
c1ccc(CCc2ccccc2)cc1
C       4.60754181     -0.45460726     -0.41378786
C       3.90012097     -1.25859104      0.47805178
C       2.55828019     -0.98795219      0.75046221
C       1.91348217      0.09331737      0.13521755
C       0.45719013      0.37418338      0.41297051
C      -0.45718872     -0.37415754     -0.56063481
C      -1.91348160     -0.09330685     -0.28287015
C      -2.63205421     -0.89233663      0.61637193
C      -3.97382752     -0.61997559      0.88739359
C      -4.60754457      0.45458676      0.26615965
C      -3.90009425      1.25867633     -0.62556187
C      -2.55825290      0.98805172     -0.89798536
C       2.63202670      0.89224173     -0.76414143
C       3.97379826      0.61986391     -1.03515199
H       5.65228740     -0.66595962     -0.62528545
H       4.39341669     -2.09765615      0.96151014
H       2.01835317     -1.62585029      1.44649597
H       0.22506601      0.09530215      1.44933014
H       0.27845727      1.45594084      0.35336409
H      -0.22507763     -0.09526506     -1.59699444
H      -0.27844147     -1.45591321     -0.50103940
H      -2.15012739     -1.73260718      1.11093172
H      -4.52460878     -1.24625059      1.58418817
H      -5.65229122      0.66592758      0.47766569
H      -4.39336708      2.09781321     -1.10891910
H      -2.01830196      1.62603028     -1.59392652
H       2.15007914      1.73244081     -1.25880316
H       4.52455937      1.24605315     -1.73203879
