11
[Ca+2].[Ca+2].[Ca+2].[O-]B([O-])[O-].[O-]B([O-])[O-]
Ca      0.00000000      0.00000000      0.00000000
Ca      0.00000000      0.00000000      0.00000000
Ca      0.00000000      0.00000000      0.00000000
O       1.44265277     -0.22231830     -0.03913969
B      -0.00191636     -0.00716492      0.10015593
O      -0.50389113      1.34987786     -0.03090596
O      -0.93684528     -1.12039464     -0.03011028
O       1.31546404     -0.59604751     -0.05493835
B       0.00876579      0.00360146      0.16335893
O      -1.17597347     -0.83824857     -0.05367282
O      -0.14825636      1.43069462     -0.05474776
