44
CCOc1ccc(Nc2ccc(S(=O)(=O)N(C)C)cc2[N+](=O)[O-])cc1
C       7.49328650     -1.90756249     -1.42304975
C       6.50083361     -0.91911065     -0.83749281
O       5.19119533     -1.45956738     -1.00448609
C       4.14632085     -0.71468169     -0.53447765
C       2.88914223     -1.29027111     -0.71736944
C       1.73106838     -0.63468850     -0.28451720
C       1.80554283      0.60819473      0.34866263
N       0.67452450      1.33006509      0.76782253
C      -0.67693769      1.29758149      0.36857872
C      -1.03199083      0.90780607     -0.93479014
C      -2.36953959      0.81369261     -1.33726443
C      -3.38859969      1.09368712     -0.42662824
S      -5.09193709      1.01258479     -0.94756567
O      -5.82658322      1.95018337     -0.12598413
O      -5.10142874      1.11378710     -2.39109889
N      -5.54998294     -0.56409090     -0.51502238
C      -5.69158440     -0.85942561      0.92072790
C      -4.95860437     -1.67139534     -1.28446098
C      -3.08267418      1.50727658      0.86950847
C      -1.73474460      1.59616321      1.25705234
N      -1.45705746      1.99884429      2.63569149
O      -0.42981202      2.66127029      2.84922708
O      -2.27236676      1.65503847      3.50334991
C       3.07356008      1.17979278      0.52316005
C       4.23514079      0.52674981      0.08927553
H       7.28459129     -2.08072270     -2.48401445
H       8.51770662     -1.53888372     -1.32008581
H       7.41403452     -2.87713134     -0.92021851
H       6.72172703     -0.77853970      0.22691858
H       6.58945336      0.03474480     -1.37022501
H       2.80828386     -2.26227848     -1.19793330
H       0.77629288     -1.13226712     -0.42351965
H       0.86872867      1.97971779      1.53424599
H      -0.25786644      0.70670339     -1.67405276
H      -2.60053686      0.53268007     -2.36370468
H      -6.29152901     -1.76603651      1.05164825
H      -4.71546661     -1.02014625      1.38674826
H      -6.21685837     -0.05483190      1.44220389
H      -4.97656322     -1.46272910     -2.35752517
H      -3.92987407     -1.86392300     -0.96728150
H      -5.54550234     -2.58266752     -1.12913439
H      -3.88163224      1.75924492      1.56557449
H       3.17108156      2.15493216      0.99565405
H       5.18715785      1.02021013      0.25242640
