50
C=C(C)C(=O)OCC(CC)(COC(=O)C(=C)C)COC(=O)C(=C)C
C       1.73460891     -4.08228393      0.39427015
C       2.39227737     -3.18060987      1.14377134
C       3.47379922     -3.57404494      2.10465337
C       2.10018690     -1.71724452      1.08631585
O       2.67281480     -0.89803462      1.78919748
O       1.12918307     -1.44693074      0.17988799
C       0.75180422     -0.06759207      0.00777805
C      -0.68867983      0.18465557      0.53260226
C      -0.69916279     -0.03021087      2.07504811
C      -2.00756968      0.30170728      2.78374864
C      -1.10152141      1.62752650      0.14865646
O      -0.35595018      2.60469898      0.89578911
C       0.60918534      3.28464836      0.22826067
O       0.90820601      3.12328818     -0.94580157
C       1.29684432      4.26726189      1.11602053
C       0.97200857      4.42593705      2.41072004
C       2.38468041      5.06306128      0.45961122
C      -1.66748340     -0.80806243     -0.14165291
O      -1.59851900     -0.66851801     -1.56894953
C      -2.34408413     -1.56410461     -2.26342279
O      -3.05402475     -2.42762572     -1.76935647
C      -2.19980555     -1.36721032     -3.73554669
C      -1.40655383     -0.42033195     -4.26606461
C      -3.00417799     -2.30622666     -4.58328352
H       1.96624349     -5.14106209      0.45687570
H       0.94947146     -3.80129563     -0.30144627
H       4.41850638     -3.08800863      1.83928565
H       3.64752910     -4.65548623      2.10473458
H       3.20530804     -3.28276999      3.12553524
H       1.46984180      0.60745883      0.48650947
H       0.81095185      0.13491388     -1.06795742
H      -0.45711322     -1.07640566      2.30037445
H       0.09570119      0.57102452      2.53482136
H      -2.26961320      1.35795980      2.67698669
H      -1.90833926      0.09721726      3.85519341
H      -2.83679169     -0.30495921      2.41036278
H      -1.01614571      1.79432952     -0.93212384
H      -2.15721511      1.79751780      0.38953111
H       0.18860931      3.84706443      2.89046007
H       1.49186959      5.14520754      3.03600048
H       2.85489145      5.76564696      1.15599991
H       3.16908698      4.40038471      0.07908921
H       1.98317358      5.64542442     -0.37631945
H      -1.42128579     -1.84016909      0.13752309
H      -2.69814560     -0.60151210      0.16924951
H      -0.82021375      0.26075291     -3.65604815
H      -1.31843896     -0.29878469     -5.34133841
H      -2.71368500     -3.34395773     -4.38861478
H      -2.85962157     -2.11786715     -5.65254531
H      -4.07264196     -2.19637820     -4.37007402
