34
CCCCS(=O)(=O)NS(=O)(=O)CCCC
C      -4.43009018     -0.80862317     -1.94153119
C      -4.71739305     -0.87575933     -0.44952871
C      -3.47420819     -1.14659526      0.39913790
C      -2.45121646     -0.01490036      0.34419243
S      -1.06896742     -0.34519702      1.44143333
O      -1.58184082     -0.42713682      2.79391326
O      -0.26472422     -1.41609405      0.89863703
N      -0.19953046      1.03861605      1.40669089
S       0.75873698      1.52437726      0.17470514
O       1.16841347      2.86769171      0.53073366
O       0.07534869      1.27538164     -1.07405903
C       2.19810313      0.45785665      0.29657891
C       3.30101841      0.92076779     -0.65195296
C       4.50354377     -0.02364876     -0.68228411
C       5.24825640     -0.09773450      0.64166514
H      -3.80406988      0.05292997     -2.19141249
H      -5.36655338     -0.71002299     -2.49996562
H      -3.92447834     -1.71631301     -2.28576193
H      -5.44210397     -1.67893516     -0.27027800
H      -5.19298005      0.05783828     -0.12722721
H      -3.79409386     -1.29835640      1.43727536
H      -3.00638399     -2.08645335      0.08143038
H      -2.05367910      0.08960325     -0.66606405
H      -2.90209072      0.92897717      0.66579691
H      -0.24629169      1.63650918      2.22228374
H       2.53357015      0.49663299      1.33691732
H       1.88996582     -0.55817635      0.04328652
H       2.89586156      0.99677655     -1.66862099
H       3.63183273      1.92952725     -0.37662168
H       5.19940073      0.32385871     -1.45519579
H       4.18070137     -1.02931255     -0.97572613
H       5.55755002      0.89792212      0.97491088
H       6.14720813     -0.71300001      0.53285538
H       4.63118441     -0.54900745      1.42414382
