28
CC(C)OC(=O)c1c(C(=O)[O-])cccc1[N+](=O)[O-]
C       3.14086168     -0.67878102     -0.88111042
C       2.47982579      0.17445009      0.19529628
C       3.03656809     -0.16561919      1.57223361
O       1.07280652     -0.10356592      0.22593564
C       0.31508529      0.64789685     -0.60679052
O       0.69004672      1.37188625     -1.51548668
C      -1.10102131      0.32061782     -0.36868874
C      -1.71774368      0.54399068      0.87506893
C      -0.99080079      1.17889361      2.02775881
O      -1.30965585      0.77244344      3.18670475
O      -0.15606871      2.08988482      1.74982874
C      -3.07563767      0.19104621      1.03422142
C      -3.82034146     -0.34138513     -0.02005670
C      -3.21622043     -0.54093437     -1.25655049
C      -1.86116318     -0.21311979     -1.41443198
N      -1.25303192     -0.50723981     -2.69736444
O      -1.77213756      0.00896078     -3.69865641
O      -0.32672558     -1.33026741     -2.71500614
H       2.93874387     -1.74292462     -0.71618381
H       2.74242878     -0.43472240     -1.87125915
H       4.22418502     -0.52531256     -0.89864066
H       2.66082773      1.23898504      0.00083288
H       4.11376009      0.01973806      1.62315976
H       2.84736715     -1.21470193      1.82559361
H       2.54218496      0.43707453      2.34187959
H      -3.54773973      0.35527738      2.00412772
H      -4.86594711     -0.59425381      0.13291448
H      -3.79045670     -0.95831761     -2.07952730
