28
NNC(=O)C(O)C(O)C(O)C(O)CO
N       4.48475126     -1.07493327     -0.15390360
N       3.19544807     -0.73871812      0.31978343
C       2.85019668      0.59692219      0.45866101
O       3.66347084      1.51798986      0.34085010
C       1.38689029      0.86334749      0.85468636
O       1.15202504      2.27840606      0.80914151
C       0.39597597      0.15137805     -0.08154676
O       0.59125007     -1.27850351     -0.00209398
C      -1.07230040      0.48143915      0.28430688
O      -1.38149942     -0.13348717      1.54684832
C      -2.05138058     -0.04372162     -0.78178895
O      -1.85121403     -1.46070545     -0.97563657
C      -3.51560419      0.18543382     -0.39622315
O      -4.33161520     -0.36443294     -1.43654527
H       5.07792517     -1.23980174      0.66411066
H       4.88314376     -0.22515730     -0.57608910
H       2.42891561     -1.41416454      0.20093580
H       1.26833215      0.52747119      1.89120650
H       2.01621748      2.69882261      1.00074059
H       0.59220352      0.45957073     -1.11598808
H      -0.15139118     -1.67690871     -0.51637411
H      -1.21901926      1.56083939      0.39493868
H      -1.14805894     -1.07771733      1.44344357
H      -1.84546094      0.42976427     -1.74882456
H      -2.64866916     -1.74394203     -1.47531687
H      -3.77531982     -0.33921572      0.52829536
H      -3.73854663      1.25156719     -0.29446450
H      -5.25666616     -0.19154256     -1.18315326
