25
O=S1OCC2C(CO1)C1(Cl)C(Cl)=C(Cl)C2(Cl)C1(Cl)Cl
O       3.16965688      0.73408477      1.51169758
S       3.39103765     -0.06767407      0.26556706
O       2.61946364      0.65894971     -0.94628844
C       1.36238642      1.25979513     -0.64953970
C       0.23660644      0.28594026     -1.00532404
C       0.14396132     -1.04940451     -0.16262290
C       1.18791151     -1.25501352      0.93749033
O       2.47726392     -1.39064935      0.34715828
C      -1.34388802     -1.02590061      0.33120459
Cl     -1.93346569     -2.58418575      0.88448378
C      -1.48493825      0.13119601      1.30034608
Cl     -1.64359272     -0.03332794      2.97744916
C      -1.40656722      1.26078016      0.58749515
Cl     -1.44318727      2.85512726      1.15462120
C      -1.21253815      0.86731181     -0.86355222
Cl     -1.60943262      2.08629772     -2.06293587
C      -2.09849336     -0.42002094     -0.89626949
Cl     -1.97473756     -1.38388014     -2.40999497
Cl     -3.86204776     -0.12974218     -0.63017550
H       1.28939163      2.14561553     -1.29017159
H       1.30062106      1.62705703      0.37951099
H       0.41078012     -0.01429279     -2.04888926
H       0.28150247     -1.87764895     -0.87297404
H       1.15447381     -0.47946040      1.70887935
H       0.98783175     -2.20095423      1.45283446
