26
CNC(=O)Oc1ccc(C)c(C)c1
C      -4.91402635     -0.81433548      0.09511163
N      -3.84033262      0.02194975     -0.36621464
C      -2.53844259     -0.21139362     -0.01535293
O      -2.15604938     -1.18470409      0.61898422
O      -1.75220031      0.83062042     -0.48078165
C      -0.38616304      0.70749157     -0.20489170
C       0.18750781      1.62042624      0.67157346
C       1.55754355      1.55484732      0.92067456
C       2.35901746      0.58904526      0.28687923
C       3.83321431      0.54789577      0.58553862
C       1.76824944     -0.31975797     -0.61820219
C       2.58430810     -1.36937855     -1.32139976
C       0.38850653     -0.24631002     -0.86324822
H      -5.18219795     -0.50928644      1.10999767
H      -4.60721552     -1.86365785      0.10039892
H      -5.77060990     -0.67907649     -0.56911551
H      -4.03608853      0.92533145     -0.77381366
H      -0.42205541      2.37332921      1.16068551
H       1.99988689      2.26506294      1.61586146
H       4.11056210     -0.42633665      1.00025688
H       4.41057556      0.73617471     -0.32506939
H       4.11630994      1.30995233      1.31946803
H       3.37001475     -0.90134800     -1.92276819
H       1.96831460     -1.97186633     -1.99751958
H       3.03691238     -2.04961429     -0.59309140
H      -0.08554184     -0.93506120     -1.55728396
