16
O=C(O)c1ccccc1O
O       2.77484970     -0.57209730     -0.14920809
C       1.95820345      0.32741788     -0.26076963
O       2.32611468      1.58320735     -0.56371804
C       0.49993193      0.15627849     -0.08203220
C      -0.38173331      1.23726387     -0.22583806
C      -1.75569120      1.05121212     -0.05215837
C      -2.25537638     -0.21162783      0.26515542
C      -1.38441875     -1.29162538      0.40979589
C      -0.01332220     -1.10905679      0.23713687
O       0.76711792     -2.22383961      0.39801175
H       3.30164275      1.54147018     -0.65006819
H      -0.01026960      2.22892829     -0.47297346
H      -2.43630979      1.89195030     -0.16450169
H      -3.32446525     -0.35671996      0.40036512
H      -1.77237030     -2.27645952      0.65708560
H       1.70609634     -1.97630210      0.25371708
