30
CC(C)CC(O)CC(C)C
C      -3.11354311     -0.66228135     -1.32495503
C      -2.40038096      0.13461460     -0.22901132
C      -2.77641015     -0.42570523      1.14330806
C      -0.87684035      0.10994382     -0.47478036
C      -0.05724309      0.95635268      0.51105320
O      -0.56301702      2.29314807      0.52622372
C       1.43696868      1.02451447      0.15617730
C       2.18584740     -0.31997957      0.11981428
C       3.65096047     -0.08454673     -0.25885800
C       2.11039915     -1.06691465      1.45163639
H      -2.88745338     -0.25152165     -2.31465911
H      -4.19969761     -0.62444669     -1.18957978
H      -2.80730281     -1.71394379     -1.31560042
H      -2.75795612      1.16995076     -0.28765665
H      -3.86471328     -0.46624924      1.26128820
H      -2.38756291      0.20250613      1.95027705
H      -2.38406507     -1.43915794      1.27944077
H      -0.69364797      0.48428646     -1.49081912
H      -0.52817104     -0.92913984     -0.45030574
H      -0.16966799      0.56984331      1.52799559
H      -0.49214879      2.64839481     -0.37631085
H       1.92873586      1.69814094      0.87174945
H       1.54502001      1.52214570     -0.81753268
H       1.74727883     -0.95607174     -0.65791483
H       4.19118445     -1.03437559     -0.33306095
H       4.15979931      0.53715387      0.48575079
H       3.72621218      0.41753539     -1.22924808
H       2.48281820     -0.44843176      2.27521474
H       1.08317907     -1.36364085      1.68423991
H       2.71141804     -1.98212439      1.41822140
