55
O=C(NCc1ccc(CC(F)(F)F)cc1)C1c2ccccc2C(=O)N1CCc1ccccn1
O       0.05354468     -1.20562118     -2.41485717
C      -0.13975527     -1.35099099     -1.20821998
N       0.82775960     -1.82634901     -0.34441171
C       2.21845013     -1.90636072     -0.71916501
C       2.96061554     -0.69101591     -0.22488850
C       3.67608063     -0.72714759      0.97871347
C       4.33287661      0.41318884      1.44760760
C       4.27598893      1.61341857      0.72718623
C       4.99553450      2.84294479      1.22722511
C       6.44602012      2.92272367      0.78530149
F       7.01565181      4.05254016      1.27167230
F       6.56657720      2.96354662     -0.55928227
F       7.17420883      1.88146930      1.24489048
C       3.55787360      1.65138962     -0.47438128
C       2.90326351      0.51079310     -0.94287952
C      -1.52659605     -1.14040828     -0.56560239
C      -2.38467689     -2.36969924     -0.67944852
C      -2.80410823     -3.05552175     -1.80752970
C      -3.61206641     -4.18483120     -1.63252964
C      -3.99354813     -4.61086852     -0.34643219
C      -3.57220877     -3.91347028      0.78667215
C      -2.77130895     -2.80459936      0.58807612
C      -2.20892741     -1.88828204      1.58549502
O      -2.40498483     -1.95016512      2.78333960
N      -1.46329039     -0.94947817      0.89454938
C      -0.95638444      0.27660032      1.50352982
C      -2.04003761      1.31889401      1.79854705
C      -2.62105395      1.93522653      0.55245636
C      -3.99989938      1.98125003      0.36183369
C      -4.49851314      2.55986667     -0.80218433
C      -3.61361001      3.07963926     -1.73894945
C      -2.25875225      3.00338318     -1.46895009
N      -1.74619021      2.44708324     -0.34883132
H       0.60236945     -1.80602082      0.64366178
H       2.62739523     -2.81624036     -0.26628811
H       2.32646164     -2.00252853     -1.80499617
H       3.73104650     -1.64586352      1.55846051
H       4.89112008      0.35394812      2.38031019
H       4.94616667      2.86719209      2.32299301
H       4.46272372      3.73922957      0.88579793
H       3.49867532      2.56785821     -1.05839198
H       2.34011147      0.56324675     -1.87404299
H      -2.02317618     -0.28080352     -1.02151101
H      -2.51086658     -2.73405589     -2.80355020
H      -3.95050842     -4.74335643     -2.50321110
H      -4.62326482     -5.49139518     -0.23662712
H      -3.85971438     -4.22354811      1.78573303
H      -0.15483042      0.68108196      0.87581871
H      -0.50460327     -0.01447741      2.45994680
H      -1.60580319      2.12843572      2.39814181
H      -2.83409146      0.86687902      2.40509458
H      -4.68107001      1.57194744      1.10180131
H      -5.57046205      2.60648645     -0.97483959
H      -3.97103828      3.53663668     -2.65472208
H      -1.52517441      3.39619920     -2.16802838
