29
CNC(=O)Oc1ccccc1C1OCCO1
C       4.00674327      1.74428890     -0.20140873
N       3.06505075      0.95230522      0.54002678
C       2.20572606      0.08773455     -0.08019252
O       2.23340048     -0.18606374     -1.27218954
O       1.30053967     -0.39394688      0.84958164
C       0.33950694     -1.26614813      0.32034871
C       0.56054988     -2.63339665      0.51264767
C      -0.37703392     -3.55265523      0.05172077
C      -1.53016223     -3.10253645     -0.58716241
C      -1.75130995     -1.73182387     -0.75999298
C      -0.82628924     -0.77998256     -0.29532404
C      -1.05555983      0.70400853     -0.49717353
O      -2.37233099      0.97960275     -1.01389005
C      -2.87978919      2.02555401     -0.19030049
C      -2.19549743      1.79832828      1.12673207
O      -0.87809555      1.41950118      0.74003291
H       3.47952849      2.59672504     -0.63788367
H       4.77945600      2.09926449      0.48417557
H       4.45918061      1.15019229     -0.99995170
H       2.80683025      1.21752870      1.48070413
H       1.46107719     -2.97727844      1.01261137
H      -0.20858197     -4.61751864      0.18665844
H      -2.26133271     -3.81783920     -0.95567404
H      -2.65933403     -1.41200149     -1.26812275
H      -0.32996903      1.08599098     -1.22361837
H      -3.96961355      1.97641986     -0.12831630
H      -2.58471425      2.98108802     -0.63718169
H      -2.64507394      0.96645579      1.67992922
H      -2.17290178      2.68620270      1.76321353
