60
CCCCCCCCCCCCCC(=O)N[C@@H](CCC(=O)O)C(=O)[O-].[K+]
C       8.62661097     -0.58219910     -0.37162649
C       7.22119179     -0.73082183      0.19115017
C       6.88037132      0.41195150      1.14759879
C       5.52288147      0.24697023      1.83784168
C       4.30495790      0.15089889      0.91238102
C       4.11048945      1.38836277      0.03233605
C       2.88361389      1.29282484     -0.88164505
C       1.55598556      1.32446956     -0.12016776
C       0.33447371      1.42745773     -1.03989571
C       0.15847735      0.27747214     -2.03672927
C       0.07043660     -1.12311708     -1.42223828
C      -1.04654351     -1.32619786     -0.39456577
C      -2.44403660     -1.08945244     -0.96464070
C      -3.53921411     -1.42309241      0.03288593
O      -3.31846911     -1.83444764      1.16654840
N      -4.79261214     -1.19321109     -0.47964012
C      -6.03863668     -1.63384579      0.17851355
C      -6.37720555     -0.78587779      1.41390604
C      -6.77205990      0.65428122      1.07315591
C      -8.11549610      1.03936444      1.64559005
O      -8.25338723      1.92082016      2.48719560
O      -9.16826413      0.36431084      1.14144628
C      -7.22161744     -1.67950736     -0.84911875
O      -6.86698056     -1.94361705     -2.03580896
O      -8.36390726     -1.36858589     -0.39608806
K       0.00000000      0.00000000      0.00000000
H       9.37329572     -0.59580651      0.42864270
H       8.84929982     -1.40537897     -1.05764846
H       8.73052358      0.35771853     -0.92318000
H       7.14266948     -1.69098844      0.71378637
H       6.51182831     -0.75325374     -0.64303289
H       6.91766550      1.36799818      0.61332474
H       7.65062899      0.46829113      1.92728110
H       5.55259768     -0.65507131      2.46206342
H       5.37975548      1.09059732      2.52465441
H       3.42244557      0.00908143      1.54672363
H       4.37910144     -0.74452665      0.28474998
H       4.98909693      1.52227092     -0.60877758
H       4.03489768      2.28433577      0.66016021
H       2.95595653      0.37979210     -1.48337034
H       2.91243459      2.13763559     -1.58096661
H       1.46017666      0.44091752      0.51830504
H       1.54927801      2.19296907      0.54980625
H      -0.56471212      1.51197133     -0.41828191
H       0.39667634      2.36557067     -1.60569119
H      -0.74204199      0.47001472     -2.63225881
H       0.98816369      0.28921262     -2.75383846
H      -0.06381037     -1.84679775     -2.23616304
H       1.02813874     -1.37617481     -0.95229799
H      -0.88464762     -0.67974560      0.47578501
H      -0.97944054     -2.35582668     -0.02002439
H      -2.56479510     -0.03973584     -1.25381587
H      -2.59180567     -1.71255452     -1.85454173
H      -4.90174878     -1.19499304     -1.49407678
H      -5.86755840     -2.66755399      0.50559020
H      -5.51373166     -0.75849088      2.08952433
H      -7.17638277     -1.28253644      1.97875696
H      -6.78279501      0.86708089     -0.00092595
H      -6.02858881      1.33619106      1.50458356
H      -8.91363159     -0.34315069      0.46676954
