39
Cc1cc(C)c(S(=O)(=O)N=c2sc(S(N)(=O)=O)nn2C)c(C)c1
C      -5.94483857     -0.01026925      1.14967677
C      -4.55410464      0.02025027      0.58758525
C      -4.01564271     -1.10855789     -0.03223678
C      -2.70359483     -1.11695286     -0.54515849
C      -2.23345735     -2.39994218     -1.17574178
C      -1.91994129      0.05781770     -0.43557671
S      -0.25780896      0.14672846     -1.15229617
O      -0.06448614     -0.97942671     -2.04335280
O      -0.09171594      1.48417957     -1.68823595
N       0.68718193     -0.03920856      0.12807866
C       1.96137417     -0.02849532      0.04960820
S       2.75757225     -0.22061483      1.62996044
C       4.30156843     -0.13626572      0.80474874
S       5.84792945     -0.25713509      1.67018365
N       7.11400462     -0.18092519      0.54821645
O       5.98390148      0.93551479      2.47812027
O       5.92371068     -1.58484844      2.24036565
N       4.27000723      0.01954869     -0.48814230
N       2.95574950      0.09245613     -0.90651521
C       2.77771840      0.15614295     -2.34600887
C      -2.43740007      1.19319312      0.24137777
C      -1.66836927      2.47115638      0.45702983
C      -3.75514331      1.15425745      0.73367247
H      -5.92394845     -0.37828566      2.18009992
H      -6.39299019      0.98888195      1.13956069
H      -6.59258531     -0.66159702      0.55331825
H      -4.63219449     -2.00336882     -0.11687828
H      -1.27731929     -2.71581546     -0.74759345
H      -2.16088983     -2.29081845     -2.26164339
H      -2.93460056     -3.22045399     -0.98420191
H       7.65830380      0.66853195      0.70774712
H       7.67903420     -1.02886413      0.61793855
H       2.15487933      1.00493559     -2.63328164
H       3.74003283      0.29283710     -2.85397582
H       2.34878878     -0.77469031     -2.72482757
H      -2.12834681      3.08053097      1.24368497
H      -1.65978204      3.07052429     -0.45796483
H      -0.64680549      2.27273998      0.79224464
H      -4.16579152      2.02630851      1.24188777
