10
C[As](=O)(O)O
C       1.31796236     -0.43055275      0.02942922
As     -0.53919285      0.17996029      0.19812275
O      -1.10461791      0.03735016      1.72603270
O      -1.59498202     -0.83621370     -0.91664288
O      -0.60833300      1.92383753     -0.38194652
H       1.52957789     -0.49539381     -1.07155137
H       1.97925597      0.31690354      0.52830156
H       1.49798055     -1.40739886      0.49795623
H      -1.33169201     -1.77565245     -0.81358126
H      -1.14595898      2.48716005      0.20387956
