23
Clc1ccc(Oc2ccccc2Cl)cc1
Cl      5.12640159      0.53914315     -1.24193044
C       3.57215527      0.01533435     -0.72217667
C       3.44173374     -0.67505123      0.48235676
C       2.18000119     -1.09958810      0.90343455
C       1.05444315     -0.81845961      0.12649379
O      -0.15122381     -1.29413444      0.59126462
C      -1.23873639     -0.45552921      0.48251220
C      -1.22498545      0.81093582      1.07934577
C      -2.34965117      1.63316669      0.99518850
C      -3.49262441      1.18817137      0.33046358
C      -3.51618246     -0.08332004     -0.24658066
C      -2.39268204     -0.90896724     -0.16462258
Cl     -2.46213475     -2.47335242     -0.88960608
C       1.19065552     -0.14618660     -1.09179310
C       2.45335238      0.27814199     -1.51245306
H       4.31476001     -0.88941688      1.09272786
H       2.07367653     -1.64641451      1.83673628
H      -0.34475971      1.15765874      1.61442466
H      -2.33658724      2.61902003      1.45431160
H      -4.36915365      1.82895732      0.26785504
H      -4.41368146     -0.42576431     -0.75535833
H       0.32746551      0.04169006     -1.72430116
H       2.55775765      0.80396505     -2.45772898
