27
CCCCCC(C)CO
C       4.21985218     -0.52964230     -0.06765674
C       2.98272298      0.34440894      0.06284391
C       1.70826927     -0.43814112     -0.25306612
C       0.46526479      0.44535858     -0.12116538
C      -0.81084755     -0.34301754     -0.43492106
C      -2.08286113      0.52923615     -0.42885131
C      -2.39863746      1.06128074      0.97227008
C      -3.28548064     -0.24591728     -0.99073450
O      -3.63500238     -1.35454420     -0.17377547
H       5.11934627      0.04982634      0.16264028
H       4.17579692     -1.37756072      0.62330565
H       4.31868724     -0.92021218     -1.08550824
H       3.07307809      1.19934018     -0.61732007
H       2.93122757      0.74458334      1.08211128
H       1.62421058     -1.29413688      0.42758948
H       1.76765148     -0.83992566     -1.27193254
H       0.41938844      0.84665360      0.89718232
H       0.54822679      1.29842540     -0.80521544
H      -0.70315982     -0.80363537     -1.42530604
H      -0.91124659     -1.16353061      0.28623792
H      -1.91542036      1.38953559     -1.08980006
H      -1.62394121      1.75229880      1.31807307
H      -3.34556842      1.61195630      0.97316779
H      -2.47861842      0.24908521      1.70242598
H      -3.08086277     -0.61084880     -2.00310704
H      -4.16095289      0.40937322     -1.05056222
H      -2.92112297     -2.01024971     -0.24324570
