43
COc1ccc2cc(C(C)C(=O)OC(C)(C)C)ccc2c1
C      -6.29912458      2.18910214     -1.53127140
O      -5.26770033      1.45271293     -2.17728294
C      -4.27611425      0.94770275     -1.37978413
C      -4.17889543      1.09917643      0.00243432
C      -3.10436177      0.53167497      0.69641509
C      -2.11068011     -0.19653672      0.02034068
C      -1.02261319     -0.76665705      0.70467140
C      -0.02746039     -1.49109671      0.02323215
C       1.16414408     -2.08007680      0.75862846
C       0.74663679     -3.11936580      1.80262051
C       2.01269320     -0.98581551      1.39599291
O       1.89181488     -0.59557522      2.54981191
O       2.89464046     -0.49634748      0.47732163
C       3.75681992      0.62455505      0.79722184
C       4.68521377      0.31072066      1.97663305
C       4.61593352      0.82669985     -0.46146890
C       2.92875749      1.89187528      1.03991188
C      -0.13718189     -1.64083137     -1.36507576
C      -1.21392611     -1.08015669     -2.05719510
C      -2.20672060     -0.35400317     -1.37859609
C      -3.29153100      0.22311328     -2.06075559
H      -5.89998056      3.08455635     -1.04315168
H      -7.00708840      2.51632760     -2.29962108
H      -6.84590926      1.56206678     -0.81960397
H      -4.91749302      1.65055710      0.57363076
H      -3.04799708      0.66429736      1.77532653
H      -0.94462032     -0.63276083      1.78382815
H       1.81027711     -2.61081577      0.04407907
H       1.63064387     -3.56506517      2.27232526
H       0.16519965     -3.92618924      1.34224070
H       0.13879445     -2.68303320      2.60416944
H       5.16576650     -0.66651636      1.84695316
H       5.46462149      1.07357863      2.08030211
H       4.14244026      0.27305425      2.92491435
H       3.98825204      1.02950584     -1.33753255
H       5.18765875     -0.08279842     -0.69429016
H       5.31954650      1.65624794     -0.34288021
H       3.56760963      2.77880154      1.11487681
H       2.34283908      1.82526638      1.96190063
H       2.20887990      2.04961177      0.22598031
H       0.61801137     -2.18894369     -1.92584900
H      -1.27009649     -1.21082889     -3.13666102
H      -3.37769994      0.11220924     -3.14021988
