41
COc1ccc(C(c2ccc(OC)cc2)C(C)[N+](=O)[O-])cc1
C       4.99811948      0.81952080      2.86361491
O       4.36315489     -0.42459713      2.59712874
C       3.31744511     -0.40893185      1.71647326
C       2.83922619      0.70440282      1.02807991
C       1.75603764      0.57994503      0.14942407
C       1.13297088     -0.66098410     -0.05550354
C      -0.04699837     -0.82390787     -1.01874293
C      -1.27335655     -0.07229377     -0.48950491
C      -1.56768482      1.25349796     -0.83627972
C      -2.69373402      1.89358475     -0.30870616
C      -3.54461120      1.23394986      0.57840006
O      -4.60440152      1.97827083      1.01657570
C      -5.52124000      1.33537790      1.89290265
C      -3.25698206     -0.07942444      0.94017488
C      -2.13123018     -0.72387889      0.41348963
C       0.36588626     -0.50217706     -2.47588362
C       1.54006342     -1.33468056     -2.99831768
N      -0.80887613     -0.79328191     -3.38461364
O      -1.19836437      0.13722943     -4.10246671
O      -1.27688585     -1.94010358     -3.37761617
C       1.61907275     -1.77405766      0.64570116
C       2.70168421     -1.64543766      1.51929587
H       4.29675876      1.53462296      3.30619822
H       5.46149619      1.22726723      1.95916094
H       5.79392588      0.63923258      3.59274109
H       3.28227001      1.68681103      1.15365316
H       1.40271016      1.47188924     -0.36271153
H      -0.32269885     -1.88978814     -1.00531450
H      -0.93829717      1.82049464     -1.51656627
H      -2.91061628      2.92057537     -0.59405046
H      -5.03521951      1.05030576      2.83180708
H      -6.31293182      2.05180893      2.13249109
H      -5.98945963      0.47077517      1.41079663
H      -3.88347624     -0.63318050      1.63119826
H      -1.92882500     -1.74873119      0.72043829
H       0.60492905      0.55982616     -2.60720495
H       1.70536400     -1.15372097     -4.06676002
H       2.46860027     -1.07906404     -2.47823681
H       1.36612528     -2.40881808     -2.86806420
H       1.16286626     -2.75404061      0.52205595
H       3.06718288     -2.51828843      2.05538250
