21
NS(=O)(=O)c1cc2c(s1)C(=O)CCS2
N       4.08462412     -0.37920025      0.73321166
S       3.32837462     -0.33227085     -0.76466688
O       3.81833002      0.85541160     -1.42415607
O       3.46182008     -1.65053346     -1.33656226
C       1.59736989     -0.06503062     -0.51773355
C       0.71223280      0.84313152     -1.06789345
C      -0.60091681      0.66799097     -0.56363028
C      -0.68866164     -0.34309394      0.36462236
S       0.82176866     -1.10485057      0.59985514
C      -1.86947719     -0.76925270      1.09323092
O      -1.89701308     -1.72598466      1.86799941
C      -3.11347962      0.08665544      0.91525418
C      -3.31140080      0.54188807     -0.52213074
S      -1.96708467      1.64368655     -1.06945359
H       4.85477715      0.29090727      0.74163538
H       4.39726578     -1.33312138      0.92163715
H       1.01357040      1.58364141     -1.80053092
H      -3.97907048     -0.51645795      1.21446507
H      -3.05298836      0.93801731      1.60341703
H      -3.35411435     -0.31837589     -1.19951097
H      -4.25592652      1.08684215     -0.61563790
