26
c1ccc(NNc2ccccc2)cc1
C      -4.50048048      0.74264463      0.26001851
C      -3.99863153      1.13794920     -0.97766920
C      -2.65427624      0.91692879     -1.29044090
C      -1.80069835      0.27755644     -0.38150876
N      -0.43492772      0.11390408     -0.70318243
N       0.37312992     -0.75281545     -0.01572843
C       1.77222425     -0.57194068      0.05779345
C       2.58538834     -1.62918754      0.48737454
C       3.96716396     -1.46333737      0.61836435
C       4.55019881     -0.22861470      0.34356489
C       3.75082019      0.84181060     -0.04986897
C       2.36976938      0.67218901     -0.18038360
C      -2.31266282     -0.08172186      0.87167167
C      -3.65603149      0.13823927      1.18803213
H      -5.54403496      0.91846818      0.50698898
H      -4.64983198      1.62680113     -1.69732065
H      -2.27831932      1.25037567     -2.25382568
H      -0.26328281      0.15492083     -1.70817657
H       0.11036787     -1.73587103     -0.09132821
H       2.14826380     -2.59508763      0.72527696
H       4.58511896     -2.29593885      0.94369158
H       5.62355394     -0.09634280      0.44999614
H       4.19669023      1.81343899     -0.24439697
H       1.75635358      1.52509289     -0.45903814
H      -1.65982073     -0.52697908      1.61794080
H      -4.03604477     -0.15248271      2.16362116
