21
O=C1OC(c2ccc(Br)cc2)C(Br)C1=O
O       3.29216046      2.17161612     -0.29902623
C       2.64510978      1.15009301     -0.24289288
O       1.83225176      0.64826232     -1.20332691
C       1.11203374     -0.49688571     -0.71496476
C      -0.34099846     -0.15282478     -0.41709839
C      -1.25495251     -1.19751870     -0.18652835
C      -2.59490886     -0.92679872      0.10207527
C      -3.03655645      0.39173179      0.15870438
Br     -4.84857898      0.75988382      0.54796845
C      -2.15112858      1.44012703     -0.07447137
C      -0.81007192      1.16968995     -0.36335427
C       1.84274352     -1.01842626      0.51191029
Br      3.14894595     -2.37692898      0.04100743
C       2.59290667      0.18610152      0.91894920
O       3.12035361      0.39297381      1.99621911
H       1.10457364     -1.22881803     -1.53237963
H      -0.93465178     -2.23758184     -0.23456415
H      -3.28470363     -1.74895420      0.27687346
H      -2.49351675      2.47183743     -0.03925981
H      -0.15013119      2.01440493     -0.55482617
H       1.20911999     -1.41198450      1.30898534
