34
OCC1CC2CC1C1CCC(CO)C21
O       4.11421959      1.89504956      0.10994399
C       3.53598406      0.60458841     -0.04010690
C       2.04346459      0.75111257     -0.33113693
C       1.25866323      1.35870421      0.85855546
C       0.16166947      0.30773903      1.12722676
C       0.94135317     -0.98828155      0.89052335
C       1.33266615     -0.61018397     -0.54258146
C      -0.03712741     -0.32510736     -1.19689849
C      -0.83632083     -1.55615731     -1.62484387
C      -2.26434569     -1.22472621     -1.21388203
C      -2.08745980     -0.55840077      0.15263365
C      -3.31991738      0.21006398      0.62344459
O      -3.68661265      1.21693934     -0.30876302
C      -0.84401339      0.32920886     -0.04615110
H       5.06386396      1.76475463      0.27286680
H       4.03699086      0.10010011     -0.87278470
H       3.72265446      0.03398609      0.87483215
H       1.92901439      1.39998985     -1.20886860
H       1.89404663      1.47769151      1.74380105
H       0.83893715      2.33882477      0.60913421
H      -0.29979703      0.40477244      2.11217563
H       0.32915332     -1.89133791      0.95704430
H       1.79819747     -1.10119239      1.56248429
H       1.93100163     -1.35200757     -1.07634531
H       0.05470448      0.36235791     -2.04653123
H      -0.49384888     -2.46422504     -1.11639472
H      -0.75590929     -1.73604066     -2.70153273
H      -2.71303721     -0.53999630     -1.94305973
H      -2.89099518     -2.12001699     -1.15746926
H      -1.88176012     -1.33734023      0.89796564
H      -4.16828585     -0.47213401      0.74118548
H      -3.12214790      0.68872337      1.58821587
H      -4.46178817      1.67638701      0.05648421
H      -1.12321782      1.35615463     -0.30925836
