37
CCCCCCCC(=O)OCC(O)CO
C       5.73461412     -0.00964763      0.49715617
C       5.15984454     -0.97316365     -0.52961552
C       4.07865380     -0.34950341     -1.41484915
C       2.81573409      0.04421550     -0.64381966
C       1.72877243      0.55752991     -1.59208783
C       0.48383288      1.07431742     -0.86626165
C      -0.27395685     -0.01565347     -0.10920550
C      -1.56592380      0.50328038      0.47766904
O      -1.95240918      1.66172478      0.44376014
O      -2.24752594     -0.52655249      1.05870999
C      -3.48797260     -0.15902791      1.69774546
C      -4.61681990     -0.13097733      0.66617308
O      -4.80709411     -1.45067490      0.12007697
C      -5.93844848      0.30708125      1.29593964
O      -6.97045028      0.26806654      0.31046937
H       6.11286207      0.89791695      0.01624627
H       6.56589930     -0.48179989      1.03063818
H       4.98583949      0.27814447      1.24081967
H       5.97576134     -1.32318353     -1.17324307
H       4.75976281     -1.85596364     -0.01750953
H       4.48724102      0.52858018     -1.92972744
H       3.81176435     -1.07595663     -2.19248500
H       2.44886990     -0.82630491     -0.08892894
H       3.05117899      0.82481232      0.08801712
H       1.44224016     -0.23665184     -2.29222301
H       2.13786412      1.37761678     -2.19526893
H       0.76547972      1.87901831     -0.17561437
H      -0.18359587      1.52773118     -1.61030976
H      -0.51592554     -0.83736286     -0.79248185
H       0.33416272     -0.40043585      0.71570942
H      -3.68074069     -0.93314067      2.44871189
H      -3.38542084      0.79631475      2.22558651
H      -4.37119765      0.51440123     -0.18383504
H      -3.92705424     -1.75710518     -0.16772317
H      -6.23525110     -0.37064500      2.10315252
H      -5.87574020      1.32490084      1.69162923
H      -6.84485058     -0.58431601     -0.15302125
