26
C#CC1(OC(C)=O)CCCCC1
C       0.76875291      1.09251856      2.56590794
C       0.53457871      0.70011599      1.45472720
C       0.25250689      0.21352961      0.08380310
O       1.47817046      0.18848961     -0.69721791
C       2.50023799     -0.62922589     -0.33554668
C       3.65247239     -0.43308330     -1.27413791
O       2.50959480     -1.41866064      0.59654337
C      -0.64553520      1.23909163     -0.64705372
C      -2.08309626      1.27627203     -0.13190524
C      -2.72084823     -0.10693605     -0.16395642
C      -1.87935305     -1.12728137      0.59230174
C      -0.43735998     -1.16637982      0.08341355
H       0.98443367      1.43056086      3.55309783
H       3.35375533     -0.70516791     -2.28956902
H       4.48224103     -1.07743232     -0.96962305
H       3.98881228      0.60616181     -1.23656144
H      -0.66104998      1.00124312     -1.72009430
H      -0.20787798      2.24439215     -0.58120212
H      -2.67350414      1.96558164     -0.74639728
H      -2.10538870      1.66939009      0.89140299
H      -2.83829046     -0.43101888     -1.20539322
H      -3.72564584     -0.06102336      0.27081431
H      -1.88917331     -0.88982352      1.66292703
H      -2.32938230     -2.12122957      0.48723071
H      -0.42710887     -1.57236555     -0.93714867
H       0.11805783     -1.88771894      0.69363721
