17
C#CC(C)(O)CC
C       1.56082717     -1.42189413     -1.48724240
C       0.99346513     -0.59769778     -0.82220598
C       0.29743861      0.42152833     -0.01209757
C       1.31186225      1.17458857      0.85338039
O      -0.31639717      1.37005409     -0.88397713
C      -0.78895300     -0.20824451      0.87850963
C      -1.93011935     -0.86524339      0.10586721
H       2.05854103     -2.15598058     -2.07822656
H       2.07623456      1.65903023      0.23353196
H       0.82311755      1.97395558      1.42225898
H       1.82061665      0.50713291      1.55774702
H       0.35542698      1.62911845     -1.53741011
H      -1.23441971      0.57242769      1.50889978
H      -0.34427703     -0.95143887      1.55250076
H      -2.67319972     -1.26204066      0.80539524
H      -1.57353360     -1.69829537     -0.50718990
H      -2.43663036     -0.14700053     -0.54618453
