22
Clc1ccc(Cl)c(-c2c(Cl)ccc(Cl)c2Cl)c1Cl
Cl     -3.87917128     -0.91575087     -2.38634634
C      -2.88487908     -0.22748717     -1.14966462
C      -3.51259141      0.59594839     -0.21347332
C      -2.77004376      1.18121738      0.80892220
C      -1.39576429      0.94551506      0.89940676
Cl     -0.54664676      1.71076655      2.20115768
C      -0.73206269      0.11830527     -0.03246331
C       0.72799991     -0.12457741      0.07390606
C       1.22618389     -1.20720572      0.83079945
Cl      0.16770022     -2.29554642      1.66524079
C       2.59883812     -1.44541489      0.93786999
C       3.50486997     -0.60786619      0.29224804
C       3.04293441      0.47138945     -0.46296533
Cl      4.23374723      1.46292605     -1.23142209
C       1.66362555      0.71744756     -0.57568514
Cl      1.09473190      2.06630349     -1.51963672
C      -1.50276937     -0.46922160     -1.06551387
Cl     -0.72650767     -1.49806954     -2.23725853
H      -4.58212119      0.78600669     -0.27510593
H      -3.26838551      1.82163174      1.53389490
H       2.96865548     -2.28415854      1.52421906
H       4.57165633     -0.80215926      0.38187027
