29
O=C(O)CNC(Cc1ccccc1)C(=O)O
O       5.57283015     -0.89735426     -0.13433780
C       4.39520683     -1.20622437     -0.05193202
O       3.96936655     -2.47000501      0.20846881
C       3.22241531     -0.24803911     -0.25938366
N       2.00135271     -0.84889704      0.35114913
C       0.78191959     -0.07227790     -0.03654340
C      -0.41039179     -0.49865227      0.84303928
C      -1.63439064      0.36466080      0.64197201
C      -2.71248828     -0.10009177     -0.12333223
C      -3.83556023      0.70357843     -0.32373132
C      -3.89192787      1.97739225      0.23800186
C      -2.82618501      2.44869087      1.00191371
C      -1.70174006      1.64709150      1.20387647
C       0.46236497     -0.28680313     -1.51958856
O       0.59892899      0.54531922     -2.40362569
O       0.08645980     -1.54596695     -1.82682790
H       2.98168293     -2.44249053      0.20953093
H       3.45165834      0.70539256      0.22608362
H       3.11019089     -0.11352447     -1.33896937
H       2.10444940     -0.76455329      1.36839427
H       0.97294354      0.99795579      0.11565712
H      -0.13166860     -0.43820985      1.90415690
H      -0.66891998     -1.55151717      0.66874524
H      -2.68619977     -1.09207695     -0.56993561
H      -4.66751824      0.33585750     -0.91889473
H      -4.76694928      2.60269785      0.08082333
H      -2.87169534      3.44223060      1.44068058
H      -0.88150321      2.03232332      1.80535115
H      -0.02463169     -1.52622144     -2.80074212
