49
Cc1cccc(C(=O)O)c1S(=O)(=O)NC(=O)Nc1nc(OCC(F)(F)F)nc(N(C)C)n1
C       4.36476906      0.16123934     -3.25119853
C       4.39011662      0.27986631     -1.75078887
C       5.56271640     -0.14741189     -1.09623784
C       5.69551909     -0.06235191      0.28719633
C       4.65326700      0.45093288      1.04847037
C       3.47097857      0.88524949      0.42811876
C       2.39358386      1.36891787      1.31988384
O       1.22578480      1.03043203      1.29637212
O       2.87054107      2.25864548      2.20654879
C       3.32943419      0.80181982     -0.97274500
S       1.84574516      1.47059617     -1.70854433
O       1.55164058      2.71415086     -1.02281622
O       1.94063083      1.47484254     -3.15076735
N       0.66489833      0.40086879     -1.27777539
C       0.63548077     -0.95698538     -1.54475148
O       1.50930589     -1.51870793     -2.19306534
N      -0.39459216     -1.68547934     -1.03933604
C      -1.49535604     -1.26620101     -0.31090578
N      -1.64954313      0.01352388     -0.00386934
C      -2.74731637      0.26489107      0.69460838
O      -3.04249647      1.55737977      1.06468879
C      -2.03675970      2.51095409      0.70479246
C      -2.43048528      3.89040639      1.19997994
F      -1.48908230      4.80492255      0.87173768
F      -2.56063676      3.91600725      2.54568147
F      -3.59902480      4.30110534      0.66014685
N      -3.64588212     -0.62787003      1.07733700
C      -3.41081182     -1.88536383      0.72445018
N      -4.30377243     -2.87902206      1.12786264
C      -5.61797605     -2.39651153      1.52900550
C      -4.26950365     -4.10014031      0.33802684
N      -2.33592387     -2.23682913      0.02149963
H       5.25206240     -0.36209636     -3.62582618
H       3.50357475     -0.42303503     -3.58537982
H       4.36497499      1.15303637     -3.71302668
H       6.39487018     -0.55150769     -1.67253403
H       6.61180470     -0.39714707      0.76798330
H       4.76319352      0.50931411      2.12974715
H       2.09168111      2.56941239      2.71297657
H       0.05199837      0.74883792     -0.54113367
H      -0.37040291     -2.67220550     -1.24153233
H      -1.08198309      2.24077152      1.16743800
H      -1.92394247      2.54556409     -0.38533339
H      -6.13887266     -1.91575767      0.69286057
H      -5.55205832     -1.69277514      2.36681535
H      -6.24004226     -3.22980711      1.87502756
H      -3.27901716     -4.56891832      0.36125313
H      -4.96956400     -4.83824394      0.74564575
H      -4.55352643     -3.90932010     -0.70333769
