61
CCCCNC1(P(=O)(OCCCC)OCCCC)CCCCC1
C       3.71090689      3.31677284      2.98277308
C       3.21879611      2.08561291      2.23749439
C       3.47889909      2.20233916      0.73315988
C       3.12532793      0.93257804     -0.05396492
N       1.69374377      0.66590816      0.01068391
C       1.14831883     -0.39916920     -0.88728963
P      -0.63380016     -0.48359174     -0.26679876
O      -0.73854067     -0.67437555      1.22047990
O      -1.35996179     -1.64143720     -1.11983685
C      -2.75646512     -1.82583089     -0.97215311
C      -3.09822444     -2.74415109      0.19800894
C      -2.33223017     -4.06713789      0.16341863
C      -2.78678454     -4.99243525      1.28115571
O      -1.35522658      0.85673087     -0.81161913
C      -1.30173731      2.02712456     -0.01078780
C      -2.65238530      2.21236992      0.67162936
C      -2.68857042      3.39634900      1.63516872
C      -2.57262389      4.74154171      0.93623648
C       1.21341919      0.03471811     -2.36685460
C       0.79758922     -1.06472910     -3.34323599
C       1.57100950     -2.35611040     -3.10349745
C       1.46245861     -2.83766524     -1.66181490
C       1.86058442     -1.75307762     -0.66092103
H       3.20522420      4.22031708      2.62636031
H       4.78882354      3.45270637      2.85185699
H       3.50957964      3.21472288      4.05374561
H       2.14804291      1.96337195      2.43379109
H       3.72587055      1.19830379      2.63452705
H       4.54187207      2.41896709      0.57108631
H       2.92014340      3.05539054      0.32650930
H       3.45206097      1.08863173     -1.08544679
H       3.69890252      0.09426870      0.35559583
H       1.44446852      0.41708967      0.97625102
H      -3.12361822     -2.26821269     -1.90423281
H      -3.26248863     -0.86279613     -0.85314372
H      -2.87866376     -2.23130075      1.14151437
H      -4.17915970     -2.93638114      0.18170115
H      -1.25696047     -3.88326305      0.27017482
H      -2.48580155     -4.56374684     -0.80176665
H      -2.62587280     -4.53151585      2.26103289
H      -3.85282796     -5.22676317      1.18674777
H      -2.22714031     -5.93401662      1.25155736
H      -1.07657331      2.86810953     -0.67289832
H      -0.50276739      1.96502485      0.73385391
H      -3.43603792      2.31722323     -0.08861182
H      -2.90290154      1.29622414      1.21953141
H      -3.63588847      3.37035752      2.18631960
H      -1.88683702      3.30112758      2.37786166
H      -2.68516971      5.55361428      1.66276155
H      -1.59727747      4.86023861      0.45297146
H      -3.35015511      4.85743789      0.17445744
H       0.58800549      0.91954609     -2.53766307
H       2.23592324      0.32317280     -2.63519866
H      -0.27796813     -1.25050193     -3.27507224
H       0.98079966     -0.72336970     -4.36877619
H       2.62670684     -2.19592948     -3.35314421
H       1.20111331     -3.13580750     -3.77959432
H       0.44641285     -3.18811153     -1.46383159
H       2.11193336     -3.71179389     -1.52424980
H       1.66824343     -2.11587042      0.35589186
H       2.94547980     -1.62879975     -0.75390536
