41
COc1cncc(-c2cncc(-c3cn4cccc(C(N)=O)c4n3)c2)c1
C       6.85857497      1.50216727     -0.73248164
O       5.48683997      1.14282504     -0.85442484
C       5.04674403      0.13384553     -0.04743346
C       5.78328532     -0.56398707      0.89875530
N       5.27921893     -1.55757064      1.66814156
C       3.97437537     -1.86815791      1.48161156
C       3.13163821     -1.24266847      0.56199061
C       1.72397436     -1.62971783      0.40871175
C       1.33969274     -2.96134209      0.24621073
N       0.06201647     -3.38215038      0.10637238
C      -0.89622338     -2.42389967      0.12297306
C      -0.64790135     -1.06332437      0.27399942
C      -1.75019847     -0.11828314      0.28017291
C      -1.66472702      1.24894442      0.43624235
N      -2.95424876      1.71562482      0.37478630
C      -3.42045084      3.02312505      0.47685268
C      -4.73966969      3.25568901      0.38709593
C      -5.63869787      2.12904848      0.18543069
C      -5.18369308      0.85889831      0.08652688
C      -6.18428582     -0.23204469     -0.12040714
N      -5.68749524     -1.49439183     -0.21554688
O      -7.39053091     -0.02398251     -0.20294718
C      -3.77692597      0.61076042      0.18254930
N      -3.06509865     -0.50161940      0.12383493
C       0.69065641     -0.67706194      0.41811071
C       3.70586239     -0.21994817     -0.20711565
H       7.51102972      0.66052340     -0.98763865
H       7.05795792      2.30760556     -1.44580909
H       7.07812317      1.88227249      0.27070206
H       6.83053791     -0.35702125      1.09004708
H       3.61121250     -2.66199938      2.13105919
H       2.07571595     -3.76175760      0.21118546
H      -1.90944097     -2.80139943      0.00678626
H      -0.83263231      1.92166004      0.58277259
H      -2.68965809      3.80796573      0.62647110
H      -5.15726571      4.25466537      0.45984410
H      -6.70162774      2.35186576      0.11673577
H      -6.32538329     -2.26383454     -0.35566721
H      -4.68918479     -1.67677088     -0.14856220
H       0.94471852      0.37125638      0.55211006
H       3.11316510      0.30419011     -0.95403258
