6
C.[Nb]
C      -0.02209687      0.00321505      0.01651974
Nb      0.00000000      0.00000000      0.00000000
H      -0.66900878      0.88935986     -0.10090850
H      -0.37778794     -0.85775189     -0.58829603
H       0.09642092     -0.31512530      1.06378087
H       0.97247267      0.28030227     -0.39109608
