21
CC1OC(C)OC(C)O1
C      -1.21059191      2.45604129     -0.26580167
C      -0.53291273      1.12107726     -0.52155757
O       0.73728263      1.14157769      0.10961171
C       1.36137567     -0.12301984     -0.04366352
C       2.67691149     -0.09712439      0.71494464
O       0.55890084     -1.16000970      0.49751908
C      -0.70941182     -1.15620777     -0.13774458
C      -1.57280784     -2.21745548      0.52186965
O      -1.35560305      0.09736452      0.01452572
H      -2.20334516      2.48613716     -0.72574691
H      -0.60680636      3.28270538     -0.65320943
H      -1.34238273      2.62226640      0.80947734
H      -0.41525158      0.98389296     -1.60479705
H       1.56669492     -0.31777340     -1.10478901
H       3.33002597      0.69714133      0.33998080
H       3.19394691     -1.05860295      0.63589366
H       2.50456852      0.09573479      1.77999341
H      -0.59991963     -1.39877292     -1.20322353
H      -2.57015950     -2.24666005      0.07192410
H      -1.10969684     -3.20583895      0.44037179
H      -1.70081780     -2.00247332      1.58893165
