67
CCCC(CC)COC(=O)CCc1cc(C(C)(C)C)c(O)c(C(C)(C)C)c1
C       6.22569371      2.15802931      2.62440868
C       6.39446896      0.80199244      1.95579568
C       5.46472477      0.65619172      0.74853426
C       5.49557536     -0.75050580      0.10892756
C       6.89515221     -1.20634680     -0.35048341
C       7.56997797     -0.30116698     -1.37170509
C       4.48211339     -0.83665448     -1.04774420
O       3.15652608     -0.66299755     -0.52347873
C       2.16903363     -0.70926949     -1.46184796
O       2.34589530     -0.88246528     -2.65909934
C       0.83260507     -0.51120297     -0.79365096
C      -0.30561041     -0.57493772     -1.80807490
C      -1.64776605     -0.36881359     -1.14674253
C      -2.17193489      0.92036539     -0.99951935
C      -3.40359907      1.16257619     -0.36228864
C      -3.89955881      2.62090199     -0.18319874
C      -4.52453702      2.87164616      1.21051241
C      -2.76025144      3.67112477     -0.30707883
C      -4.92860906      2.94863960     -1.28443526
C      -4.11322014      0.01814639      0.08216637
O      -5.36371453      0.15578374      0.62009705
C      -3.60739533     -1.30415413     -0.01347302
C      -4.38058573     -2.53404893      0.52586562
C      -3.61229299     -3.87294294      0.36434335
C      -5.71233577     -2.71098270     -0.23687479
C      -4.65435270     -2.38542548      2.03999248
C      -2.35951271     -1.45998511     -0.63996354
H       6.90442177      2.24619242      3.47857270
H       6.45071864      2.97031809      1.92576942
H       5.20216673      2.29125351      2.98921345
H       6.18363660      0.01261140      2.68638880
H       7.44009934      0.69451566      1.64882720
H       5.71499029      1.41700864     -0.00082721
H       4.43995740      0.87524150      1.07486978
H       5.16292694     -1.45631461      0.88332698
H       6.81667816     -2.21368724     -0.77867341
H       7.55332510     -1.30706544      0.52012588
H       7.74592516      0.69992491     -0.96865639
H       8.54280020     -0.71857608     -1.65194152
H       6.97496367     -0.20966772     -2.28462233
H       4.67922005     -0.05725758     -1.79295524
H       4.54446864     -1.82131818     -1.52612640
H       0.84023079      0.46433736     -0.29376958
H       0.70755265     -1.29345514     -0.03594588
H      -0.29921243     -1.54068260     -2.33026519
H      -0.16419066      0.18156011     -2.59109915
H      -1.58012681      1.73955524     -1.39830832
H      -3.87271298      2.49939929      2.00895290
H      -5.50705729      2.40939602      1.33093334
H      -4.68511581      3.94236491      1.38725455
H      -3.12540893      4.68219627     -0.08845477
H      -2.34572937      3.71401145     -1.32043293
H      -1.94338214      3.45907283      0.39273337
H      -5.27392221      3.98612092     -1.20434370
H      -5.81525166      2.31002232     -1.23599589
H      -4.49356452      2.82029043     -2.28263089
H      -5.85638076      0.76574691      0.05056909
H      -4.18893061     -4.71198469      0.77297115
H      -2.65340720     -3.85555607      0.89562412
H      -3.41983420     -4.10565021     -0.68967677
H      -6.22956503     -3.62457701      0.07961911
H      -5.53899649     -2.78441883     -1.31693122
H      -6.41161701     -1.88662056     -0.07345385
H      -5.11675993     -3.29221123      2.44821189
H      -5.33418481     -1.56186425      2.27414890
H      -3.72298290     -2.21074796      2.59151247
H      -1.91223817     -2.44298254     -0.75761811
