32
CCC(C)c1ccccc1OC(=O)NC
C      -1.35562146     -1.87407899      0.97996555
C      -1.92905781     -1.47583129     -0.37441628
C      -1.01626465     -0.50952258     -1.15796123
C      -1.55371839     -0.30701083     -2.58070750
C      -0.83144897      0.83177367     -0.46537086
C      -1.93372150      1.65968053     -0.19114976
C      -1.76749429      2.89903455      0.43510614
C      -0.49565880      3.33956204      0.79495551
C       0.61284430      2.53983321      0.53282801
C       0.43628459      1.29342661     -0.07578907
O       1.57678096      0.53574370     -0.37262876
C       2.10457502     -0.14226894      0.71419604
O       1.67249608     -0.13340210      1.85840440
N       3.19861564     -0.85507994      0.30517777
C       3.87431913     -1.77557976      1.17743079
H      -1.27600532     -1.01460574      1.65220044
H      -2.00616656     -2.61225467      1.45991943
H      -0.36270306     -2.32129041      0.86917570
H      -2.92660456     -1.04492217     -0.22850967
H      -2.06986020     -2.39047876     -0.96426343
H      -0.04319379     -1.00415642     -1.26517552
H      -1.59579583     -1.26193947     -3.11589268
H      -2.56329976      0.11814720     -2.58122631
H      -0.90590211      0.36721812     -3.15220546
H      -2.93902661      1.34737598     -0.46485588
H      -2.63477572      3.52154090      0.64058650
H      -0.36906469      4.30361091      1.27977904
H       1.60625318      2.88017495      0.80909399
H       3.36638205     -0.87883404     -0.69071754
H       3.31490389     -2.71462826      1.19413325
H       4.87921242     -1.95148121      0.78700465
H       3.93271680     -1.36975676      2.19091274
