24
N#CC(C#N)=NNc1ccc(C(=O)CCl)cc1
N      -5.45286991     -1.37697356     -1.05342771
C      -4.89131541     -0.65849084     -0.33233135
C      -4.17458079      0.23942234      0.52650408
C      -4.81438831      1.11048180      1.46979990
N      -5.35800186      1.80754974      2.22513487
N      -2.87783990      0.31885019      0.50206475
N      -2.16846970     -0.47250470     -0.35915081
C      -0.76232761     -0.32758346     -0.37973167
C      -0.02168903     -0.98401283     -1.36997313
C       1.37604076     -0.91227938     -1.38848863
C       2.06837420     -0.19879018     -0.40134059
C       3.56343471     -0.16495632     -0.47249009
O       4.13194918     -0.74916513     -1.39652603
C       4.35432945      0.55846016      0.59058654
Cl      4.30534283      2.30335952      0.29140672
C       1.33804356      0.43407509      0.60844600
C      -0.06168617      0.35781451      0.62070491
H      -2.54393229     -0.71262338     -1.28091030
H      -0.52225512     -1.56256034     -2.14288601
H       1.92052684     -1.42515660     -2.18023329
H       5.39784664      0.23174966      0.54580214
H       3.98071272      0.33449882      1.59303376
H       1.81666366      0.99864809      1.40259828
H      -0.60390843      0.85018681      1.42517539
