12
O=S(=O)([O-])CS(=O)(=O)[O-].[Ca+2]
O      -2.46861609     -0.49525413     -0.77353729
S      -1.52503925      0.27603517      0.05707071
O      -1.49167936      1.68571795     -0.32886898
O      -1.72525522      0.02073433      1.48255393
C       0.01141004     -0.43617514     -0.39944531
S       1.51456617      0.12431383      0.30956607
O       1.45119064     -0.13783151      1.74641320
O       1.68476121      1.52717028     -0.06499278
O       2.50101528     -0.74330176     -0.36072857
Ca      0.00000000      0.00000000      0.00000000
H       0.10762547     -0.31334745     -1.48390756
H      -0.05997889     -1.50806157     -0.18412342
