50
CCCCOc1ccc(C(=O)OCCN(CC)CC)cc1.Cl
C       6.54616548      1.77213909      1.25613455
C       7.58767155      0.86302038      0.64963492
C       7.27633916     -0.58785197      0.92946149
C       5.95093102     -0.94804741      0.33585899
O       4.91656598     -0.17130831      0.90369793
C       3.59681008     -0.35550677      0.47224952
C       2.58314879      0.39519448      1.02160746
C       1.30261733      0.17608652      0.55824373
C       1.01682299     -0.74566203     -0.40965594
C      -0.34631345     -0.91753169     -0.86602337
O      -0.63863711     -1.77681446     -1.76656824
O      -1.42562512     -0.18878923     -0.38736752
C      -2.75677696     -0.42031414     -0.90839474
C      -3.63284055      0.53050449     -0.19035543
N      -5.04868739      0.40724079     -0.65276718
C      -5.75581157      1.46860738      0.07152457
C      -7.11508902      1.69594894     -0.45549172
C      -5.55560898     -0.86749204     -0.17150411
C      -6.86284194     -1.18615957     -0.84052825
C       2.02884422     -1.48252825     -0.94466979
C       3.32961907     -1.29748537     -0.51188698
Cl      0.68393545      0.00000000      0.00000000
H       5.73685176      1.96614439      0.52524376
H       6.18518928      1.29687223      2.18975733
H       6.99757804      2.77567581      1.51597020
H       7.60292717      0.96642783     -0.46209802
H       8.61029866      1.13821410      1.00425655
H       8.09779307     -1.19761430      0.46785470
H       7.29461007     -0.79636700      2.04147323
H       5.98912199     -0.75703755     -0.76275180
H       5.72543706     -2.03508005      0.51641601
H       2.80490021      1.12616601      1.78582552
H       0.51345520      0.77152691      0.99814894
H      -2.99098883     -1.48537012     -0.83089551
H      -2.77073616     -0.17899758     -1.99486106
H      -3.37907896      1.57740496     -0.39787302
H      -3.68170909      0.41133034      0.90471255
H      -5.83123475      1.16396566      1.14375648
H      -5.14920668      2.40675265      0.01532995
H      -7.45870896      2.74383767     -0.11284623
H      -7.91810398      1.04828053     -0.10630172
H      -7.10750960      1.75954315     -1.58068816
H      -5.73338295     -0.77663360      0.94834889
H      -4.83041312     -1.69862509     -0.24366801
H      -6.82308292     -2.24688063     -1.26340148
H      -7.15926647     -0.53178197     -1.65327845
H      -7.69461986     -1.24417749     -0.09366657
H       1.82717534     -2.21178960     -1.70584423
H       4.14540093     -1.88642525     -0.94211977
H      -0.68393545      0.00000000      0.00000000
