19
O=C(O)COc1cc(Cl)c(Cl)c(Cl)c1
O       3.67403897      0.86161048      1.04306014
C       3.32607779      0.09718603      0.15899991
O       4.25554389     -0.55341478     -0.57601787
C       1.91447949     -0.25826533     -0.26982876
O       0.96776015      0.44612327      0.52680054
C      -0.35650866      0.23683117      0.26730291
C      -1.22880686      0.95777492      1.08402808
C      -2.61448246      0.84162129      0.93076981
Cl     -3.60805651      1.77818252      1.99373999
C      -3.14846205     -0.00420530     -0.04954554
Cl     -4.86523391     -0.15585287     -0.24832638
C      -2.26754049     -0.72646184     -0.86765816
Cl     -2.82378827     -1.79902827     -2.10905142
C      -0.87894647     -0.60644346     -0.70991310
H       5.10790050     -0.24006612     -0.20355056
H       1.78998127     -1.33825676     -0.13226016
H       1.80687223      0.02960365     -1.32166449
H      -0.81796443      1.61664179      1.84758289
H      -0.23286420     -1.18358038     -1.36446785
