10
O=S1OCCO1
O       2.29524437      1.33048541     -0.29887119
S       1.05534980      1.29606032      0.54085666
O      -0.19799322      1.29223831     -0.48330262
C      -0.97981327      0.12202082     -0.27337749
C       0.01652158     -0.92326578      0.15915654
O       0.87867133     -0.22876334      1.05302421
H      -1.50395365     -0.15627331     -1.19157807
H      -1.71591098      0.33214182      0.51106457
H      -0.45853343     -1.76748339      0.66596887
H       0.61041747     -1.29716087     -0.68294147
