22
CC=CC=CCCC
C       3.80875069      0.77498433      0.57379039
C       3.27986076     -0.62035608      0.66520082
C       2.04987259     -1.07094712      0.37273571
C       0.93713562     -0.28528602     -0.10741339
C      -0.26423922     -0.82042435     -0.37499994
C      -1.43660571     -0.02788173     -0.88050369
C      -2.59968979     -0.06522336      0.11107898
C      -3.79354881      0.72445405     -0.40260798
H       4.66238894      0.80012936     -0.11087238
H       4.15427853      1.10215794      1.55951873
H       3.07421029      1.50080001      0.21910292
H       4.00500621     -1.35305193      1.01809711
H       1.86170287     -2.13603947      0.50816046
H       1.08520800      0.78051776     -0.25421459
H      -0.43020512     -1.88708196     -0.23792107
H      -1.14880494      1.01303243     -1.07243117
H      -1.75287648     -0.45176240     -1.84117341
H      -2.28391149      0.34964652      1.07608744
H      -2.90785987     -1.10219598      0.29217285
H      -3.53051799      1.77535637     -0.55995337
H      -4.15615521      0.31477695     -1.35076959
H      -4.61399988      0.68439466      0.32070578
