34
Nc1ccc(N=Nc2ccc(S(=O)(=O)[O-])cc2)cc1S(=O)(=O)[O-].[Na+].[Na+]
N      -5.38959989      1.32424382      1.11082862
C      -4.06837998      0.90380856      0.80893300
C      -3.07849576      1.89121431      0.76343334
C      -1.77766128      1.58566773      0.34996430
C      -1.43491686      0.28737992     -0.05435747
N      -0.13752673     -0.02410140     -0.51135936
N       0.71978683      0.26509756      0.35354936
C       2.03015938      0.05427974     -0.12164221
C       2.45501677     -1.17266764     -0.65721047
C       3.77750629     -1.34845362     -1.08039597
C       4.68486437     -0.29392158     -0.95146261
S       6.40078233     -0.48742175     -1.50748897
O       6.33246552     -1.60965801     -2.44032974
O       6.68934168      0.80726477     -2.12121901
O       7.09622440     -0.75555688     -0.25174051
C       4.28157471      0.93372012     -0.42055354
C       2.95887876      1.09873120     -0.00149508
C      -2.43177449     -0.68859618     -0.07474230
C      -3.74166923     -0.37682009      0.33266915
S      -4.97146394     -1.70589882      0.23027796
O      -4.24558891     -2.87095390      0.72586184
O      -6.05421024     -1.24000897      1.09971726
O      -5.28986156     -1.71178265     -1.19445393
Na      0.00000000      0.00000000      0.00000000
Na      0.00000000      0.00000000      0.00000000
H      -5.84985254      1.58015580      0.23864381
H      -5.90664284      0.47375411      1.41926074
H      -3.32109155      2.90672792      1.06385558
H      -1.02388979      2.36775863      0.33380287
H       1.75117933     -1.99613754     -0.74312546
H       4.10293713     -2.29640419     -1.50063770
H       5.00034020      1.74433206     -0.33494315
H       2.64597126      2.04888921      0.42095912
H      -2.20440337     -1.69464224     -0.41975582
