27
CCCC(O)C(C)CC
C       3.13837793      0.86740459     -1.43291017
C       2.31053165      0.59717979     -0.18550383
C       0.96839577     -0.05582859     -0.53607739
C       0.07353455     -0.26069827      0.69637078
O       0.68732469     -1.20241876      1.58085091
C      -1.35202942     -0.77354913      0.37412889
C      -1.33893691     -2.15132481     -0.30459098
C      -2.20392414      0.19881907     -0.46575028
C      -2.35710785      1.57964670      0.15483790
H       3.35255972     -0.06193521     -1.97028226
H       4.09210212      1.33078876     -1.16157376
H       2.61324715      1.54525883     -2.11340924
H       2.13785415      1.54248070      0.34173012
H       2.88655144     -0.05064656      0.48409474
H       1.17567177     -1.02199330     -1.01133212
H       0.45615175      0.57405352     -1.27091828
H      -0.00697104      0.67960415      1.25323023
H       1.47036987     -0.77858206      1.97001812
H      -1.86270501     -0.91662075      1.33723954
H      -0.77250575     -2.88147301      0.28192700
H      -0.90169254     -2.10321416     -1.30698297
H      -2.35935220     -2.53681303     -0.40782366
H      -3.20702835     -0.22965829     -0.58821910
H      -1.79150932      0.30113610     -1.47600742
H      -3.07466310      2.17199394     -0.42221141
H      -1.40934483      2.12577332      0.15844110
H      -2.72490211      1.51061646      1.18331904
