13
C=COCCCl
C       2.27334952      0.02591153      0.35654057
C       1.43394474      0.83622807     -0.29765539
O       0.08099191      0.73701885     -0.44853991
C      -0.57034812     -0.37372023      0.17386110
C      -2.06455712     -0.30804657     -0.11716812
Cl     -2.85174779      0.99362150      0.81582623
H       1.95230890     -0.86562417      0.88017428
H       3.33459212      0.25435158      0.38057841
H       1.78456929      1.72552091     -0.81219310
H      -0.38999675     -0.36986154      1.25577755
H      -0.17603183     -1.30295313     -0.25501115
H      -2.55208480     -1.24461636      0.16703311
H      -2.25499007     -0.10783045     -1.17547818
