22
Clc1ccccc1-c1cc(Cl)c(Cl)c(Cl)c1Cl
Cl     -0.69950864      2.71498881      0.48248205
C      -1.48329710      1.17221579      0.44475430
C      -2.85691674      1.13425300      0.70361871
C      -3.54023141     -0.08061137      0.67872390
C      -2.85300272     -1.25780164      0.39446786
C      -1.48072525     -1.22260941      0.13529380
C      -0.77064743     -0.00820154      0.15808826
C       0.67621295     -0.01216276     -0.12314167
C       1.09986042      0.11729861     -1.45577040
C       2.45760484      0.13268334     -1.78379201
Cl      2.85706472      0.29755809     -3.45939078
C       3.42975250      0.01608767     -0.78146049
Cl      5.11621495      0.03379265     -1.20614705
C       3.02712304     -0.11830017      0.56039262
Cl      4.22344387     -0.27126307      1.81795424
C       1.65482676     -0.13319820      0.88714580
Cl      1.14192526     -0.30797015      2.54317732
H      -3.39983455      2.04946318      0.92684387
H      -4.60796509     -0.10849835      0.88300187
H      -3.38462878     -2.20666457      0.37767205
H      -0.96375708     -2.15654919     -0.07935744
H       0.35648547      0.21548935     -2.24736918
