18
O=C(O)COc1nc(Cl)c(Cl)cc1Cl
O       2.15289636     -1.38252901     -0.49030223
C       2.45639756     -0.20119964     -0.54767670
O       3.35154490      0.22552703     -1.46533166
C       1.96243987      0.92878132      0.34509622
O       0.96646761      0.54873814      1.28850349
C      -0.25306421      0.23227739      0.72441359
N      -0.46647763      0.55442861     -0.57254450
C      -1.67453044      0.22295269     -1.08753561
Cl     -1.83126902      0.66582790     -2.74272241
C      -2.68801560     -0.40205672     -0.36631521
Cl     -4.21888367     -0.80821876     -1.04289806
C      -2.44570868     -0.70666303      0.97152873
C      -1.21066200     -0.38440348      1.53111635
Cl     -0.91927939     -0.76213641      3.18604141
H       3.57340186     -0.58494102     -1.97083014
H       1.62861696      1.77834430     -0.26273935
H       2.82566621      1.26730147      0.92907590
H      -3.20954071     -1.19203078      1.57312020
