15
CCC(C)S
C      -1.77132297     -0.95590212      0.36932683
C      -0.74349789      0.11420657      0.71688979
C       0.52934326      0.05668534     -0.14072127
C       1.42733048      1.25937123      0.13998813
S       1.48716522     -1.47126769      0.16128642
H      -2.03042839     -0.91982708     -0.69360648
H      -2.68834930     -0.79375199      0.94521491
H      -1.40903657     -1.96086427      0.60397941
H      -1.22068819      1.09216031      0.57312383
H      -0.49515334      0.04735087      1.78364975
H       0.25414179      0.06535959     -1.20135343
H       0.89524919      2.19181345     -0.07951146
H       2.32516658      1.24392454     -0.48807361
H       1.74073539      1.29866098      1.18946450
H       1.69934475     -1.26791973      1.46995513
