20
O=Nc1c(O)ccc2ccccc12
O      -2.66903856      2.21084348      0.94610579
N      -1.74792278      2.06198787      0.13357501
C      -1.27748557      0.75604183      0.06413200
C      -2.16321661     -0.34385478      0.00435623
O      -3.53162752     -0.21993992      0.04704913
C      -1.68937482     -1.64523034     -0.11013677
C      -0.31854871     -1.87684968     -0.16801391
C       0.59569366     -0.81441694     -0.11733653
C       1.97420335     -1.07662402     -0.18261016
C       2.90677915     -0.04172856     -0.13854519
C       2.47406021      1.27213721     -0.02824213
C       1.10711771      1.55039786      0.03834102
C       0.12925210      0.52237791     -0.00355970
H      -3.74424802      0.71109722      0.25095171
H      -2.38762239     -2.47701601     -0.15449387
H       0.03216001     -2.90380236     -0.25662368
H       2.33712737     -2.09927537     -0.26986780
H       3.96960519     -0.26391767     -0.19030695
H       3.19622704      2.08402360      0.00751800
H       0.80685919      2.59374867      0.12770780
