38
CCCCOCCOC(=O)COc1ccc(Cl)cc1Cl
C      -3.74149541     -2.29409666     -1.68813145
C      -3.76254831     -0.85505701     -1.19697895
C      -3.14824132     -0.73251006      0.19915230
C      -3.18929545      0.69897789      0.72653475
O      -2.39786921      1.53291293     -0.11894442
C      -2.28594926      2.87589611      0.35651708
C      -1.21924601      3.02434042      1.44311624
O       0.05529756      2.60503699      0.92223902
C       0.45577734      1.34299246      1.26733189
O      -0.11115475      0.62013687      2.07488871
C       1.71489704      0.99548130      0.48582974
O       2.20653142     -0.28700750      0.85369165
C       3.32291338     -0.75627617      0.21376221
C       4.02748197     -0.05407108     -0.77059140
C       5.16008943     -0.61882147     -1.36776338
C       5.59368143     -1.88579377     -0.98440179
Cl      6.98728115     -2.57028179     -1.72453597
C       4.90753752     -2.59872317     -0.00794537
C       3.77682786     -2.03424606      0.58770296
Cl      2.95852029     -2.96074854      1.79811711
H      -2.71634855     -2.67363697     -1.74628116
H      -4.18549979     -2.36037039     -2.68632369
H      -4.31214532     -2.94566906     -1.01870320
H      -3.21377705     -0.22820976     -1.90899734
H      -4.79822762     -0.49633394     -1.17965816
H      -3.68405209     -1.38627892      0.89703854
H      -2.10595555     -1.07212347      0.15897461
H      -2.80110954      0.71523784      1.74936599
H      -4.22048802      1.06991760      0.74003919
H      -3.25838660      3.24430432      0.70178298
H      -1.99039283      3.47778087     -0.50968310
H      -1.48770080      2.48000932      2.35390771
H      -1.12266063      4.08002022      1.71745728
H       1.44731657      1.00297902     -0.57713487
H       2.46640450      1.75915361      0.71689901
H       3.72607660      0.93511765     -1.10021652
H       5.69862486     -0.06326222     -2.13214998
H       5.24728521     -3.58677738      0.28979114
