29
CC(=O)[CH-]C(C)=O.CC(=O)[CH-]C(C)=O.[Ca+2]
C       2.36800477     -0.40736194      0.10654609
C       0.86260062     -0.41769527      0.12407066
O       0.23888826     -1.25549780      0.76741091
C       0.17247876      0.60099480     -0.68223601
C      -1.28198515      0.78595963     -0.81193151
C      -2.23156669     -0.10975093     -0.06723520
O      -1.68457305      1.69086508     -1.54373020
C       2.37231387     -0.25039501     -0.32801115
C       0.89888011     -0.42950199     -0.07588167
O       0.39643440     -1.54617301     -0.00232282
C       0.09333727      0.78818073      0.10433350
C      -1.35566560      0.85767743      0.35345029
C      -2.17406563     -0.40012852      0.43543081
O      -1.86397493      1.97102450      0.48961483
Ca      0.00000000      0.00000000      0.00000000
H       2.72716956     -1.21766429     -0.53286344
H       2.75531315      0.54441171     -0.26717030
H       2.73915389     -0.54364311      1.12624709
H       0.77679060      1.29457428     -1.25222765
H      -2.06856177     -0.02187713      1.00976331
H      -2.11431653     -1.14405313     -0.39980523
H      -3.25939644      0.20073809     -0.27982868
H       2.60118966      0.77166909     -0.64193102
H       2.68322098     -0.92554309     -1.13027444
H       2.92538453     -0.47795976      0.58673547
H       0.59828961      1.74422854      0.05816602
H      -1.83925264     -1.01439137      1.27490249
H      -3.22258091     -0.13583164      0.60512523
H      -2.11351071     -0.95285591     -0.50533674
