21
CCOC(=O)CN(N=O)C(N)=O
C      -2.54094056      0.22407291      1.91481948
C      -2.06690422      1.04208006      0.72848670
O      -0.81398239      0.53336079      0.24844442
C      -0.88184073     -0.47845402     -0.65830466
O      -1.92706673     -0.96470776     -1.07936319
C       0.48345146     -0.97828836     -1.09674923
N       1.59443578     -0.23349419     -0.52440059
N       2.07691510      1.02055201     -1.18203904
O       1.48381893      1.28005883     -2.23356956
C       2.10151594     -0.61295688      0.70328743
N       3.10791216      0.14655179      1.21999196
O       1.69160199     -1.57579219      1.34871266
H      -3.46535301      0.63816665      2.32711442
H      -1.77857530      0.20941295      2.70069403
H      -2.72160758     -0.81653750      1.62744359
H      -2.81887972      1.06820208     -0.06835297
H      -1.89311013      2.07703695      1.04068525
H       0.55999622     -2.02612471     -0.78562771
H       0.54141046     -0.94318555     -2.18926885
H       3.52533108     -0.22784244      2.06249413
H       3.74187123      0.61788857      0.59012669
