34
CCCCOCCOCCCC
C       6.08747745     -0.85388999      1.02386830
C       4.81411775     -0.03327194      0.89588668
C       3.91291565     -0.56865189     -0.21320910
C       2.63418790      0.25117851     -0.34545695
O       1.85370198     -0.30985752     -1.39999783
C       0.62832523      0.38998716     -1.61853390
C      -0.47540267     -0.08361036     -0.67511315
O      -1.67747411      0.63231573     -0.95897448
C      -2.75716611      0.19877148     -0.13085883
C      -3.99043798      1.02014760     -0.49098509
C      -5.20219977      0.72606127      0.39159530
C      -5.73682753     -0.68890254      0.23407059
H       5.85924367     -1.89772152      1.26194165
H       6.66384994     -0.83145511      0.09346755
H       6.71793994     -0.45309379      1.82374087
H       4.27808604     -0.04984689      1.85195301
H       5.07817010      1.01052916      0.68994345
H       3.65310279     -1.61683234     -0.01867773
H       4.44712972     -0.56511232     -1.17165163
H       2.07232605      0.22296732      0.59383041
H       2.87763935      1.29248616     -0.58554021
H       0.31892358      0.19184899     -2.65115122
H       0.77439160      1.47494877     -1.54934246
H      -0.18805510      0.08492553      0.36827388
H      -0.63592609     -1.16025300     -0.80749406
H      -2.49386518      0.35163730      0.92193558
H      -2.93671087     -0.86713748     -0.30615005
H      -3.74176734      2.08609176     -0.41028637
H      -4.24259760      0.85758055     -1.54643963
H      -6.00079127      1.43133721      0.13237500
H      -4.95014289      0.90564409      1.44318411
H      -5.01743934     -1.43157679      0.59121635
H      -6.65519074     -0.81035654      0.81750419
H      -5.96953413     -0.90688853     -0.81301526
