21
O=c1c(Cl)c(Cl)cnn1-c1ccccc1
O       1.09449195      2.01338989      1.18228897
C       1.52320828      1.04329953      0.55807586
C       3.00657672      0.91098401      0.39162275
Cl      3.98934524      2.15024226      1.10171627
C       3.53320714     -0.11525955     -0.27291158
Cl      5.20215915     -0.39933550     -0.54378323
C       2.59194808     -1.08772229     -0.82043092
N       1.30829587     -1.03743810     -0.71608159
N       0.74570755      0.02481259     -0.02722644
C      -0.69870247     -0.03116666      0.02060569
C      -1.48833592      0.93442739      0.66266779
C      -2.88770858      0.84188835      0.68532700
C      -3.53354163     -0.22079478      0.06517366
C      -2.78045503     -1.19306811     -0.57893070
C      -1.38378666     -1.09728808     -0.59943292
H       3.03359729     -1.93593436     -1.37005676
H      -1.05980658      1.79223613      1.16856213
H      -3.46790058      1.60905359      1.19274956
H      -4.61765413     -0.28950927      0.08457116
H      -3.27242950     -2.02964934     -1.06806483
H      -0.83821621     -1.88316771     -1.11644187
