25
CCC(CC)(CO)CO
C      -1.95062268     -1.57065215      0.01210863
C      -0.49223898     -1.26636496     -0.31469572
C      -0.02634201      0.19581787     -0.04587391
C       1.42080634      0.38299972     -0.60759354
C       2.50657135     -0.46486244      0.04581141
C      -0.93722985      1.22117592     -0.76967449
O      -1.05914951      0.90930868     -2.15440861
C      -0.07727895      0.49430819      1.47067043
O       0.43453452      1.79148486      1.75439174
H      -2.63563409     -0.97908819     -0.60146778
H      -2.17692483     -1.38790559      1.06596310
H      -2.16104317     -2.62632707     -0.19025093
H      -0.32105459     -1.52018372     -1.36860205
H       0.12441638     -1.96012590      0.26950996
H       1.71757679      1.43592278     -0.51646718
H       1.42539931      0.16264081     -1.68301636
H       3.47224482     -0.25368340     -0.42600598
H       2.60892939     -0.24154357      1.11122225
H       2.31344296     -1.53436330     -0.07218461
H      -0.53020452      2.23556076     -0.68796940
H      -1.94350364      1.23473888     -0.33743938
H      -1.56732745      1.63162414     -2.56142954
H      -1.10554233      0.46246462      1.84531828
H       0.50513885     -0.23801876      2.03943425
H       0.45503591      1.88507181      2.72264943
