36
Cc1cccc(N(O)C(=O)CCc2ccccc2)c1
C      -5.81270955      0.79171430      1.65297780
C      -4.86769930      0.14761110      0.68191762
C      -5.35218332     -0.65702080     -0.35022729
C      -4.46764483     -1.23164436     -1.25840377
C      -3.09227015     -0.99783476     -1.15145655
C      -2.57435042     -0.18181261     -0.13901167
N      -1.18293145      0.09357090     -0.01535505
O      -0.83422527      0.97371213      1.03858492
C      -0.12467561     -0.49638452     -0.70385233
O      -0.23469182     -1.30894854     -1.62215822
C       1.25433156     -0.04093024     -0.23975848
C       2.37470895     -0.71963227     -1.02592547
C       3.73290291     -0.24016966     -0.57587016
C       4.37172159     -0.84172182      0.51665574
C       5.61861270     -0.38460225      0.94581736
C       6.23602503      0.67880037      0.28997457
C       5.60705333      1.28667160     -0.79499916
C       4.35990040      0.83128378     -1.22561299
C      -3.48617891      0.38830670      0.76977532
H      -6.72023465      0.19095073      1.77434137
H      -5.35138205      0.88518615      2.64171995
H      -6.09381879      1.78741478      1.29652173
H      -6.41852726     -0.84565958     -0.45111733
H      -4.84480382     -1.86464091     -2.05813172
H      -2.45245521     -1.46653162     -1.89256179
H      -0.95949255      1.83701720      0.60266819
H       1.35908265     -0.27490783      0.82662267
H       1.32133502      1.04669327     -0.36524778
H       2.31761855     -1.80987120     -0.91067921
H       2.25769509     -0.52932444     -2.10072048
H       3.90139916     -1.67198371      1.03891912
H       6.10841777     -0.85921469      1.79197796
H       7.20757249      1.03304036      0.62389049
H       6.08863678      2.11542330     -1.30719438
H       3.88169926      1.31582738     -2.07378857
H      -3.12843827      1.01961176      1.58014570
