35
COc1nc(C)nc(NC(=O)NS(=O)(=O)c2ccccc2Cl)n1
C       5.89754183      1.63896426      0.85844861
O       4.78237481      2.10488508      0.10983328
C       3.74179083      1.20274347      0.05961907
N       3.84444590      0.03572918      0.69009741
C       2.77822583     -0.75112514      0.58032660
C       2.82823212     -2.09239671      1.24377147
N       1.68105479     -0.44372198     -0.11421415
C       1.69437612      0.75190812     -0.70246069
N       0.59594604      1.17929672     -1.42665072
C      -0.57729172      0.53573830     -1.66513772
O      -1.46996168      1.11326575     -2.27305196
N      -0.72411390     -0.75508021     -1.18236347
S      -2.09355982     -1.67544424     -1.26632526
O      -1.86653670     -2.84463119     -0.44223513
O      -2.44608904     -1.83382621     -2.66155880
C      -3.33492050     -0.69855766     -0.46927206
C      -4.47845778     -0.34957403     -1.20446524
C      -5.49010603      0.40528286     -0.61083819
C      -5.36589855      0.81178082      0.71497975
C      -4.22779220      0.46671344      1.44672187
C      -3.20522975     -0.28967158      0.86015146
Cl     -1.83121923     -0.63378857      1.84997272
N       2.69523293      1.61555148     -0.64478593
H       6.66486334      2.41890088      0.83455748
H       5.62973617      1.46908974      1.90716456
H       6.32807565      0.73616657      0.41122269
H       3.43184604     -2.04848143      2.15545339
H       1.82166758     -2.42571076      1.51494081
H       3.27040762     -2.82426024      0.56168115
H       0.67365239      2.10705252     -1.81270740
H       0.00974236     -1.14314921     -0.59150966
H      -4.58699395     -0.65673947     -2.24360862
H      -6.37314417      0.67672053     -1.18527035
H      -6.15359250      1.40071608      1.17928586
H      -4.14430481      0.79565282      2.48048224
