9
C=C(Br)C(F)(F)F
C       1.31562730     -0.49436141      0.34522251
C       0.34350495      0.37815746      0.02988829
Br      0.72123120      2.21145853     -0.10561252
C      -1.08990245      0.00727200     -0.23821060
F      -1.30528488     -1.33186219     -0.12605653
F      -1.94659720      0.60586316      0.62940197
F      -1.48490632      0.35404593     -1.49069164
H       2.33610238     -0.17235142      0.52920270
H       1.11022500     -1.55822206      0.42685582
