29
CCOC(=O)c1ccnc(C(=O)OCC)c1
C       5.83623585      0.15598758      0.43166519
C       4.70904031     -0.85560757      0.36182849
O       3.46819904     -0.13903143      0.31998143
C       2.37149696     -0.93298917      0.25567102
O       2.36906316     -2.15264289      0.23220801
C       1.13363576     -0.11261392      0.21595547
C       1.16218418      1.28315818      0.24396273
C      -0.04215959      1.96051600      0.20301398
N      -1.24145579      1.34868526      0.13760361
C      -1.24980457     -0.01116473      0.11118821
C      -2.57008917     -0.70879760      0.03872084
O      -2.69098898     -1.92502251      0.01001688
O      -3.58787894      0.18926600      0.01035580
C      -4.89194005     -0.39619336     -0.05923422
C      -5.91342184      0.72400149     -0.08351123
C      -0.09307325     -0.77593086      0.14833071
H       5.73234022      0.78806204      1.31981026
H       5.81103032      0.82169079     -0.43742468
H       6.80805439     -0.34426978      0.46560900
H       4.73416412     -1.49986253      1.24784918
H       4.81432729     -1.46559642     -0.54235944
H       2.09159357      1.84020610      0.29624208
H      -0.07627630      3.04691142      0.22229185
H      -4.97972374     -0.99676906     -0.97155628
H      -5.05983542     -1.03103818      0.81798411
H      -5.82443051      1.34629576      0.81311841
H      -5.74576287      1.37994729     -0.94417385
H      -6.92987467      0.32417541     -0.13667158
H      -0.14464947     -1.86137334      0.12523575
