30
CC(=O)Nc1ccc(S(=O)(=O)Nc2nccs2)cc1
C      -4.32660200      0.53151853      4.26482533
C      -3.49524783      1.11181948      3.14764448
O      -3.51791893      2.31352450      2.90862569
N      -2.77843981      0.14082132      2.47123896
C      -1.91437908      0.32106812      1.37157194
C      -1.28697784     -0.82417490      0.85903419
C      -0.41390269     -0.73517846     -0.22871829
C      -0.16135004      0.51034243     -0.80626232
S       0.93601479      0.61493744     -2.20294441
O       0.77756939      1.92829241     -2.78972745
O       0.74690149     -0.59333125     -2.97517624
N       2.42675067      0.61558203     -1.40633438
C       3.43912312     -0.09170056     -2.16564330
N       4.34686833      0.60917699     -2.79695090
C       5.24336819     -0.25577056     -3.39601321
C       5.02624572     -1.59735100     -3.15946522
S       3.65533358     -1.78536637     -2.14413578
C      -0.78737377      1.65724529     -0.31762316
C      -1.65835395      1.55854235      0.77355852
H      -4.55586707      1.31548113      4.99239354
H      -5.25844351      0.13396607      3.85431096
H      -3.78288461     -0.26344200      4.78334960
H      -2.88604597     -0.81099785      2.79849521
H      -1.47024203     -1.80265465      1.29639350
H       0.05903001     -1.63407617     -0.61854510
H       2.73365339      1.58896882     -1.36184381
H       6.05024320      0.14877221     -3.99565131
H       5.59318547     -2.44647518     -3.51277098
H      -0.61304987      2.63009093     -0.77244497
H      -2.12720834      2.47163452      1.12880889
