19
Nc1ccc(S(N)(=O)=O)cc1
N       3.37460555     -0.17697360     -0.70519366
C       2.06604605     -0.05085235     -0.22645569
C       1.33647122      1.11661752     -0.47437102
C      -0.00880128      1.21109738     -0.10752042
C      -0.64283393      0.10784487      0.46615398
S      -2.33615410      0.22728522      0.95809435
N      -3.13866103     -0.27197499     -0.42897224
O      -2.61333473     -0.77567289      1.95985317
O      -2.68306715      1.61771678      1.13872193
C       0.05796522     -1.08042481      0.67866643
C       1.40283059     -1.16093092      0.30702165
H       3.87401196      0.70406662     -0.77765606
H       3.92044778     -0.88968495     -0.23086448
H       1.81388227      1.96758911     -0.95378893
H      -0.55142141      2.13671490     -0.28401361
H      -3.70953596      0.49100034     -0.79308135
H      -3.66241396     -1.12631547     -0.23820930
H      -0.43245533     -1.94636598      1.11683027
H       1.93241825     -2.10073678      0.44199245
