25
COC(=O)CNC(=O)c1ccccc1
C       5.13638294      1.06134643     -0.30225054
O       4.17789149      0.04587064     -0.00275186
C       2.88540306      0.42767449     -0.19945337
O       2.52463027      1.52716569     -0.60646891
C       1.94114571     -0.71498600      0.13346254
N       0.56175960     -0.25899119      0.07825344
C      -0.47279169     -1.11710163      0.36901239
O      -0.29093064     -2.27532127      0.72768531
C      -1.85329914     -0.58506730      0.19361413
C      -2.14299480      0.78354634      0.27512168
C      -3.45561993      1.23155203      0.10465380
C      -4.48132301      0.31842625     -0.13944367
C      -4.20115073     -1.04561814     -0.20632103
C      -2.89136194     -1.49757848     -0.03596747
H       5.07915419      1.34233659     -1.35850676
H       4.98421079      1.93396552      0.34066753
H       6.13259125      0.65575458     -0.10529026
H       2.14138474     -1.08290205      1.14424749
H       2.06989994     -1.51949894     -0.59669110
H       0.38806966      0.61679287     -0.40289277
H      -1.36879518      1.51252923      0.49567812
H      -3.68026053      2.29346678      0.17104482
H      -5.50228627      0.66954312     -0.26898190
H      -5.00153154     -1.75873279     -0.38737660
H      -2.68017822     -2.56417276     -0.08441602
