35
CC(=O)OC[C@H]([C@@H](OC(C)=O)c1ccccc1)[N+](=O)[O-]
C       4.78041166     -0.92313955      1.16217022
C       3.41816029     -0.76021914      0.56354952
O       2.72648939     -1.67328604      0.13742662
O       3.04859220      0.54980825      0.57430066
C       1.75511025      0.84150304      0.00026802
C       0.62150180      0.55029668      0.98559506
C      -0.80681219      0.64541658      0.41862922
O      -0.81686403      1.46038706     -0.77375048
C      -1.90190757      2.26559446     -0.94470534
C      -1.76881959      3.03394774     -2.22349394
O      -2.84861172      2.35892083     -0.17786810
C      -1.40701672     -0.70728306      0.04941080
C      -0.70146466     -1.68567643     -0.66601706
C      -1.30062205     -2.90684045     -0.98762909
C      -2.61607821     -3.16424924     -0.61203577
C      -3.33773174     -2.19862619      0.08229741
C      -2.73983970     -0.97958298      0.40718304
N       0.72031901      1.60514115      2.06286402
O       0.55648380      2.78781357      1.73299454
O       0.95625916      1.21007710      3.21182283
H       5.50700765     -0.33462752      0.59639256
H       5.07352062     -1.97574984      1.11386847
H       4.76391299     -0.61156050      2.20945226
H       1.78468836      1.89536500     -0.30059612
H       1.64351808      0.27256853     -0.92937886
H       0.77646719     -0.39732668      1.51608231
H      -1.45581348      1.08535344      1.18903354
H      -2.64354028      3.67779105     -2.35230926
H      -0.87569393      3.66271531     -2.18646971
H      -1.71825228      2.34189107     -3.06780850
H       0.32307379     -1.52858061     -0.98964504
H      -0.73600453     -3.65823455     -1.53477384
H      -3.07938199     -4.11418654     -0.86506025
H      -4.36869084     -2.39057196      0.36889841
H      -3.33237073     -0.23484956      0.93842536
