16
O=C(O)C(O)C(O)C(=O)O
O       2.12403192      0.70855123     -1.18174701
C       1.81047844      0.09667992     -0.17648109
O       2.73656693     -0.20122207      0.76644623
C       0.44099752     -0.46888484      0.18383476
O       0.28223872     -0.61348912      1.60876663
C      -0.66616560      0.45436798     -0.33365341
O      -1.24642985      1.22047678      0.74982154
C      -1.77456793     -0.37686511     -0.96812645
O      -1.60556537     -1.29519052     -1.75468481
O      -3.00303595      0.04445719     -0.56891413
H       3.56655678      0.19511343      0.42037341
H       0.40295259     -1.47093354     -0.25683379
H       1.13904922     -0.96890806      1.92660329
H      -0.33552742      1.16380731     -1.09851224
H      -0.99888860      0.71970205      1.56251504
H      -2.87269141      0.79233736      0.06363147
