19
O=C(O)COc1cc(Cl)cc(Cl)c1Cl
O       4.29949854     -1.32735237      0.20349360
C       3.40073053     -0.50026574      0.15139464
O       3.63454838      0.83422093      0.13798913
C       1.92531120     -0.86119631      0.09576808
O       1.16008448      0.34425247      0.04269173
C      -0.20744932      0.24105003     -0.01289594
C      -0.90554688     -0.97068812     -0.02110396
C      -2.30067543     -0.97175192     -0.07962668
Cl     -3.14758146     -2.46983675     -0.08909639
C      -3.01506425      0.22075173     -0.13035311
C      -2.32853960      1.43566820     -0.12268492
Cl     -3.27435450      2.88176540     -0.18753264
C      -0.92674889      1.45333330     -0.06417204
Cl     -0.05293159      2.95550860     -0.05364337
H       2.78667796      1.33019923      0.09378669
H       1.76228512     -1.45192422     -0.81155877
H       1.68601565     -1.42030328      1.00621639
H      -0.39472715     -1.92804603      0.01698955
H      -4.10153280      0.20461485     -0.17566197
