23
CCCC(C)(C)C
C       2.93854258     -0.42602797      0.58308830
C       1.43823317     -0.62684537      0.74635515
C       0.65019445      0.32818430     -0.15696750
C      -0.89543623      0.21319623     -0.07447962
C      -1.37228419     -1.18856455     -0.48903854
C      -1.50568752      1.24350796     -1.04516424
C      -1.40164759      0.52130182      1.34432166
H       3.24981372     -0.61518944     -0.44922462
H       3.22902824      0.59541776      0.84881049
H       3.48578220     -1.11485910      1.23428657
H       1.19899245     -1.66755442      0.50540029
H       1.17830909     -0.46291360      1.79703898
H       0.96401405      0.16133073     -1.19643248
H       0.94345762      1.35836035      0.08704944
H      -1.04651979     -1.95524041      0.22138879
H      -0.98799672     -1.45989010     -1.47855904
H      -2.46656841     -1.23485436     -0.53369260
H      -1.18333922      1.05579513     -2.07560748
H      -2.60087640      1.20642381     -1.02811726
H      -1.20407498      2.26336620     -0.78082224
H      -2.49713605      0.54513062      1.37485127
H      -1.03874985      1.49550005      1.69028161
H      -1.07605060     -0.23557565      2.06525476
