23
OC1CC(O)C(O)C(O)C1O
O      -0.00975919      2.27602615      0.89513884
C      -0.69998684      1.48458082     -0.06882873
C       0.26476329      1.07409558     -1.18251421
C       1.32543968      0.09760415     -0.68156337
O       2.13018742     -0.32025816     -1.78764539
C       0.68974200     -1.12991790     -0.02400260
O       1.73638104     -1.97379314      0.48614241
C      -0.25304311     -0.72346148      1.11396536
O      -0.88215311     -1.91774093      1.61518739
C      -1.32570541      0.26709522      0.63450772
O      -2.21201845     -0.43305554     -0.25318669
H       0.34050670      3.06353459      0.43982594
H      -1.49526799      2.10331244     -0.50050932
H      -0.29019426      0.62041981     -2.01362427
H       0.76625132      1.95711016     -1.59793726
H       2.00111106      0.59564758      0.02422039
H       2.65909462     -1.06911441     -1.44448201
H       0.16380684     -1.73660082     -0.77139147
H       1.28672067     -2.59363212      1.09604178
H       0.32422165     -0.29968522      1.94369207
H      -1.63281813     -2.08255142      1.00766252
H      -1.92106359      0.58162337      1.49992766
H      -2.96621620      0.15876126     -0.43062674
