25
CC(Br)C(=O)NCC(=O)NCC(=O)O
C       2.78644177     -2.25043948      0.90622883
C       2.99967965     -0.96238601      1.67645729
Br      4.71400240     -0.16870679      1.17758086
C       1.90489456      0.06433022      1.42523691
O       1.12003191      0.39690350      2.31282152
N       1.81177449      0.55731642      0.14144930
C       0.65707658      1.33104753     -0.27038360
C      -0.39548506      0.38845568     -0.85891231
O      -0.10051232     -0.66151093     -1.42794026
N      -1.68821687      0.83879796     -0.74946249
C      -2.80679903      0.02306062     -1.19419916
C      -4.14613399      0.67177014     -0.88421070
O      -5.24535060      0.23478780     -1.18408854
O      -4.04135356      1.82898805     -0.18948488
H       2.81181847     -2.09699459     -0.17816172
H       1.81278802     -2.68804186      1.15180337
H       3.55911479     -2.98706297      1.15191858
H       3.06734293     -1.15615774      2.75147437
H       2.30743839      0.06511452     -0.59307647
H       0.97736024      2.02425728     -1.05344049
H       0.24730759      1.89346876      0.57351629
H      -1.90961634      1.60828940     -0.12400455
H      -2.75372044     -0.94126514     -0.67998559
H      -2.71520557     -0.11943618     -2.27478315
H      -4.97467802      2.10541381     -0.06115407
