28
CCC1(C(C)C)C(=O)NC(=O)NC1=O
C       2.18270133     -1.66377492      0.44524411
C       0.66375168     -1.49229528      0.37758162
C       0.17843826     -0.06230214      0.01829962
C      -1.39808402      0.03691351     -0.03258647
C      -2.07877896     -0.26599739      1.31236784
C      -2.03810252     -0.85961303     -1.10525557
C       0.66538430      0.94772275      1.05872734
O       0.96909565      0.65767724      2.21314294
N       0.69614653      2.25313775      0.65180247
C       0.95742125      2.62634992     -0.62875868
O       1.45337120      3.71765871     -0.88837144
N       0.73400868      1.70059687     -1.59853033
C       0.70600381      0.35493797     -1.35550598
O       1.04392160     -0.43429328     -2.23412312
H       2.63410417     -1.02321473      1.20746560
H       2.66303960     -1.44545025     -0.51218602
H       2.42397208     -2.70039009      0.70382986
H       0.28819541     -2.21423921     -0.35668724
H       0.25947292     -1.79510022      1.35034260
H      -1.67193970      1.06968824     -0.29077836
H      -1.92119686     -1.30250704      1.62527326
H      -3.16096088     -0.11052111      1.23418455
H      -1.72039135      0.39395779      2.10731078
H      -1.87875091     -1.92193785     -0.89748741
H      -1.64954247     -0.63997745     -2.10360312
H      -3.12097631     -0.69404304     -1.14232789
H       1.02739506      2.90710203      1.34911900
H       1.09230046      1.95991427     -2.50848993
