18
COc1ncc2nccnc2n1
C       3.35944790     -0.78982001     -0.18231704
O       2.87959859      0.54676625     -0.24726999
C       1.50504910      0.62974490     -0.23322251
N       1.02303911      1.87377390     -0.29321062
C      -0.32087708      1.97606930     -0.28060783
C      -1.19113052      0.91441045     -0.21218286
N      -2.54225189      1.07087073     -0.20237728
C      -3.25857671     -0.06699138     -0.13194951
C      -2.64763883     -1.30059398     -0.07425099
N      -1.30202352     -1.44474406     -0.08464056
C      -0.55446304     -0.33696701     -0.15388083
N       0.76782155     -0.48310640     -0.16385074
H       4.45309788     -0.75258925     -0.19901288
H       3.03462723     -1.37249675     -1.05149432
H       3.05888296     -1.27612735      0.75237894
H      -0.70566571      2.99078332     -0.32965116
H      -4.33723656      0.03988289     -0.12315740
H      -3.22170046     -2.21886555     -0.01746886
