18
O=[N+]([O-])c1ccc(CO)cc1
O       3.56351502     -1.30240149     -0.98940808
N       3.11074666     -0.70298307     -0.00365663
O       3.77227935     -0.40103762      0.99997722
C       1.69215377     -0.32520113     -0.02583861
C       0.90447036     -0.64934345     -1.13747944
C      -0.44484149     -0.28741990     -1.15349963
C      -1.01107994      0.40347612     -0.07132878
C      -2.47361649      0.76584463     -0.08575733
O      -3.26401010     -0.31974298      0.37618142
C      -0.21375498      0.70992467      1.04151102
C       1.13675259      0.35232014      1.06697716
H       1.32109101     -1.18028351     -1.99122330
H      -1.05669479     -0.54737422     -2.01653392
H      -2.66641141      1.63344478      0.55402553
H      -2.79717567      1.02991207     -1.09810008
H      -2.66701971     -1.01613334      0.69813768
H      -0.64228380      1.23107700      1.89659542
H       1.73587961      0.60592129      1.93942037
