18
O=C(O)c1c(Br)c(O)c(O)c(O)c1Br
O       2.99227568     -0.71343750     -1.53165670
C       2.49222465     -0.25455395     -0.52546327
O       3.20139775      0.12935006      0.54811085
C       1.06224991     -0.06039451     -0.27862461
C       0.46479795      1.17790626     -0.57266575
Br      1.47251840      2.62990607     -1.28206981
C      -0.90267956      1.34059282     -0.34072497
O      -1.54027741      2.52295092     -0.60408850
C      -1.65564194      0.28716897      0.16877817
O      -2.99528545      0.47881292      0.38428840
C      -1.06624830     -0.93888124      0.45362981
O      -1.88787450     -1.91792920      0.94960667
C       0.29934422     -1.12511217      0.23120906
Br      1.06470203     -2.81963391      0.63833102
H       4.13690802     -0.01905694      0.29351148
H      -2.47721940      2.37562587     -0.36117911
H      -3.31883482     -0.37747137      0.73552838
H      -1.34235723     -2.71584310      1.09347888
