35
Cc1c(C(C)C)c(=O)n(-c2ccccc2)n1C
C      -1.75135979     -0.81707528     -2.50809604
C      -1.00773071     -0.31341020     -1.31195696
C      -1.54044362      0.17293058     -0.17541059
C      -2.96480319      0.36790773      0.24172422
C      -3.33542188     -0.51751270      1.43288636
C      -3.28080195      1.83690275      0.53159887
C      -0.37388563      0.51131502      0.69290877
O      -0.48742479      0.94926135      1.82692964
N       0.77596626      0.16620218     -0.02729594
C       2.03988628     -0.14831219      0.53885992
C       2.45318782      0.43458052      1.74463195
C       3.69940820      0.13095325      2.30355514
C       4.55160005     -0.76627951      1.66698711
C       4.15665271     -1.36288803      0.47377320
C       2.91092560     -1.05644534     -0.08361408
N       0.39430827     -0.31384046     -1.31077275
C       1.08028770      0.36974907     -2.42200099
H      -1.33092305     -1.77249554     -2.83989049
H      -2.81114871     -0.98842058     -2.30291240
H      -1.67909722     -0.10261609     -3.33411840
H      -3.62014678      0.07065595     -0.58520462
H      -4.40620576     -0.43773962      1.65067796
H      -3.11706884     -1.57041939      1.22254764
H      -2.79292359     -0.23429622      2.34081266
H      -3.01254250      2.47196301     -0.32002200
H      -4.35247642      1.96759342      0.71843439
H      -2.74665445      2.20779274      1.41236412
H       1.82255582      1.15036813      2.26577156
H       3.99878695      0.59857495      3.23814514
H       5.51751719     -1.00466825      2.10413848
H       4.81100875     -2.07574276     -0.02099257
H       2.61774196     -1.56740608     -0.99640190
H       0.74907855      1.41169220     -2.50205931
H       0.86530648     -0.13862918     -3.36790413
H       2.16684029      0.36975459     -2.29809397
