29
C=CCc1ccc(OC(C)=O)c(OC)c1
C      -4.61061760     -0.90549363      0.47246980
C      -3.84837895      0.15915452      0.18931603
C      -2.93245375      0.25568295     -0.99804257
C      -1.49443673      0.48918538     -0.59452431
C      -0.94196381      1.77765630     -0.64881554
C       0.38053453      1.99195150     -0.26756802
C       1.14969925      0.91046599      0.16006631
O       2.46311695      1.16168608      0.56944000
C       3.39332677      0.84802179     -0.41247393
C       4.76879795      1.01612038      0.16214904
O       3.17111568      0.51806409     -1.57039609
C       0.62147440     -0.38398416      0.25045799
O       1.46592010     -1.34933836      0.73109542
C       0.99725784     -2.69068859      0.69298511
C      -0.70644547     -0.58447998     -0.13407050
H      -4.61244069     -1.79125767     -0.15496478
H      -5.25300642     -0.90962947      1.34794575
H      -3.88548699      1.02379412      0.84928321
H      -2.98539226     -0.64908815     -1.61709568
H      -3.27570174      1.07633168     -1.64026944
H      -1.54032855      2.62002842     -0.98855335
H       0.80836394      2.98855301     -0.30898355
H       5.51120488      0.70893951     -0.58003423
H       4.93821879      2.06525322      0.41638208
H       4.88223898      0.38183572      1.04507765
H       0.14840547     -2.82948559      1.37042901
H       1.80840608     -3.33773506      1.04059964
H       0.74385949     -2.99478146     -0.32812428
H      -1.16528814     -1.56676255     -0.07831908
