70
CC(C)(C)NC(=O)C1N(C(=O)C(O)C(Cc2ccccc2)NC(=O)c2ccccc2)CSC1(C)C
C       5.56473357     -1.76953197     -0.17055398
C       4.34785810     -1.74647983     -1.10864975
C       4.83777773     -1.44198745     -2.53659687
C       3.65760449     -3.11977956     -1.11924244
N       3.40874372     -0.68583437     -0.71750734
C       2.73675626     -0.61522044      0.48509193
O       2.84423543     -1.46900158      1.36163606
C       1.82943958      0.63509716      0.67321117
N       1.67470839      1.40415792     -0.59099796
C       0.83441286      1.09788302     -1.63724941
O       0.93178010      1.67307276     -2.72653087
C      -0.24997302      0.02200576     -1.45700552
O      -0.65202062     -0.49305163     -2.73628440
C      -1.47155881      0.61892838     -0.71627648
C      -2.29388259      1.57035867     -1.61559996
C      -3.32983516      2.35632169     -0.84236919
C      -2.94864371      3.46386358     -0.07135985
C      -3.90006570      4.17938232      0.65714484
C      -5.23944599      3.79637453      0.62168218
C      -5.62905624      2.69800532     -0.14225844
C      -4.67935698      1.98000992     -0.87097578
N      -2.31891787     -0.47094312     -0.21486211
C      -2.10796894     -1.03998464      1.02157539
O      -1.29215304     -0.60286605      1.82634836
C      -2.93853796     -2.22623019      1.35895059
C      -3.27057152     -2.44228182      2.70209653
C      -4.04431728     -3.54599989      3.06446621
C      -4.47992365     -4.44181847      2.08850159
C      -4.13671676     -4.24143667      0.75118537
C      -3.36318681     -3.13787666      0.38371016
C       2.56942748      2.53604831     -0.72960534
S       3.44319076      2.74123333      0.83069323
C       2.33183634      1.61752871      1.75605111
C       3.09527988      1.00178464      2.92871524
C       1.15516019      2.44760960      2.30025941
H       6.30865260     -2.50114378     -0.50555440
H       5.28651502     -2.03224451      0.85535170
H       6.05054160     -0.78733143     -0.13426880
H       3.99918487     -1.40787047     -3.24224185
H       5.34009144     -0.46859786     -2.58256293
H       5.54413210     -2.20163265     -2.88940253
H       4.32776268     -3.89531706     -1.50698950
H       2.76026252     -3.10379710     -1.74897131
H       3.34744161     -3.43223328     -0.11723809
H       3.29327975      0.09099691     -1.35494194
H       0.85628224      0.22976327      0.95415587
H       0.17290808     -0.82639168     -0.91162056
H      -0.34787392      0.16097113     -3.39904950
H      -1.11475690      1.18223937      0.15429976
H      -2.79007437      1.00904538     -2.41791875
H      -1.63637324      2.29239826     -2.11502682
H      -1.90782408      3.77660612     -0.03120338
H      -3.59612256      5.03508141      1.25455254
H      -5.97951701      4.35282459      1.19110825
H      -6.67336716      2.39808137     -0.16835277
H      -5.00154612      1.12331941     -1.45784484
H      -2.97586582     -0.88648103     -0.86073342
H      -2.92764176     -1.74861701      3.46747671
H      -4.30220875     -3.70829789      4.10808651
H      -5.07758354     -5.30434852      2.37284629
H      -4.46157747     -4.95334764     -0.00360773
H      -3.07620823     -3.02500589     -0.65757499
H       1.98469381      3.43120915     -0.96463694
H       3.27564266      2.35281057     -1.54521177
H       2.47332584      0.26644501      3.45183052
H       4.01768126      0.50078171      2.61452476
H       3.37911618      1.76360128      3.66518958
H       0.58458405      2.94063825      1.50465410
H       0.45488775      1.80415193      2.84608694
H       1.49474264      3.22235141      2.99782003
