35
O=C1CCCCCCCCCCC1
O       2.26700055      0.59996441      1.43896730
C       2.02886075      0.50368239      0.23473852
C       2.24641486     -0.80196829     -0.51704184
C       1.93373656     -2.04516884      0.32283073
C       0.48923584     -2.11278882      0.83640480
C      -0.54649641     -2.34387866     -0.26922237
C      -1.97073790     -1.92245796      0.11990297
C      -2.14472206     -0.44199344      0.49350790
C      -1.68896814      0.52797033     -0.60265886
C      -1.62290834      1.98751456     -0.14095747
C      -0.48782086      2.31261890      0.84181531
C       0.83734206      2.76037551      0.20388290
C       1.60229886      1.70603649     -0.59411546
H       1.63954357     -0.80045646     -1.42666900
H       3.29575669     -0.82282993     -0.83229068
H       2.60686637     -2.06773685      1.18893932
H       2.15331181     -2.94204791     -0.26856649
H       0.41173373     -2.93761212      1.55604204
H       0.27616472     -1.20366354      1.40298934
H      -0.26408096     -1.83932588     -1.19664131
H      -0.55619682     -3.41350342     -0.51547099
H      -2.30636963     -2.53642195      0.96472791
H      -2.63999564     -2.15519444     -0.71769203
H      -1.62600531     -0.24371164      1.43510505
H      -3.20714513     -0.26140926      0.70143244
H      -0.72007451      0.23559678     -1.00234944
H      -2.39775672      0.45814084     -1.43734172
H      -1.54109605      2.63861809     -1.01957670
H      -2.57895142      2.23604436      0.33732078
H      -0.31321714      1.48876278      1.53935384
H      -0.83133560      3.15392584      1.45885253
H       0.64331193      3.61962150     -0.45012451
H       1.48677381      3.13152573      1.00732993
H       2.51869385      2.15144732     -0.99895384
H       1.00683271      1.38032358     -1.45005025
