15
O=S1(=O)CCCC1
O       1.82109618     -1.24894953      1.21269065
S       1.22921329     -0.82039322     -0.03750708
O       1.79852373     -1.16683283     -1.32313739
C       0.97983021      0.94787709      0.01869701
C      -0.48753305      1.13431821      0.38757615
C      -1.24980479      0.02520362     -0.33456689
C      -0.50051494     -1.26777826     -0.03332078
H       1.18727057      1.34697162     -0.97847102
H       1.65607210      1.39514963      0.74990446
H      -0.61717577      1.02487289      1.47110645
H      -0.84749386      2.12798100      0.10484794
H      -2.29268963     -0.03218160     -0.00903469
H      -1.24413820      0.21739233     -1.41431464
H      -0.68529981     -2.04305865     -0.77952111
H      -0.74735603     -1.64057229      0.96505095
