27
Cc1ccccc1N=C(N)N=C(N)N
C      -1.90176028      1.51841170     -0.95244572
C      -1.52274969      0.11618093     -1.33705702
C      -2.32901558     -0.61091843     -2.22629410
C      -1.98177567     -1.91029997     -2.59878618
C      -0.82501320     -2.49501493     -2.09071914
C      -0.01947155     -1.78138753     -1.20363347
C      -0.36659102     -0.48391286     -0.80769628
N       0.46463588      0.21788035      0.07950248
C       0.39425169     -0.02734127      1.35250389
N      -0.45982822     -0.90011526      1.95523411
N       1.19314561      0.67068961      2.21450791
C       2.32415039      1.15484661      1.83559444
N       2.94046178      1.08590571      0.63194652
N       3.10338433      1.83990344      2.70588300
H      -2.13916591      1.56707961      0.11507256
H      -1.08306085      2.21027439     -1.17554519
H      -2.78169759      1.86184618     -1.50661100
H      -3.23025958     -0.16484849     -2.64097503
H      -2.61056911     -2.46277064     -3.29246639
H      -0.54654104     -3.50305701     -2.38568116
H       0.88556661     -2.23669698     -0.80940720
H      -1.31634087     -1.05224312      1.44073667
H      -0.60886014     -0.64952794      2.92357855
H       3.30655140      1.98599389      0.34735623
H       2.27094405      0.75746000     -0.07123419
H       4.07650001      1.56888946      2.63181314
H       2.76310856      1.72277255      3.65419903
