68
CCCCCCCCCCCCCCCCCCCCCC(=O)O
C      -9.63971626     -0.76675872     -0.21208759
C      -8.45933549     -0.15250700      0.52385744
C      -7.22273673     -1.05389606      0.56265256
C      -6.58698163     -1.26784542     -0.81346653
C      -5.33655521     -2.15442576     -0.77826575
C      -4.18323968     -1.65392609      0.09748842
C      -3.67292413     -0.26641411     -0.29825992
C      -2.48213769      0.15254933      0.56824783
C      -2.01495426      1.58715461      0.30135289
C      -1.36438055      1.76166921     -1.07314035
C      -0.89936611      3.19346423     -1.34885133
C       0.16399405      3.76867487     -0.40672098
C       1.52716517      3.07091023     -0.46732011
C       1.70856131      1.98768077      0.59877843
C       3.12704629      1.41153651      0.56772436
C       3.30484410      0.31852835      1.62447314
C       4.74318601     -0.19630654      1.72921107
C       5.21422646     -0.94559165      0.48099894
C       6.61643529     -1.52575231      0.68280096
C       7.10493288     -2.25041338     -0.57467544
C       8.49095113     -2.86489388     -0.39178464
C       9.57191222     -1.83335079     -0.22933156
O      10.30465608     -1.70661571      0.73708893
O       9.70169976     -1.02961263     -1.30092233
H      -9.90333637     -1.74159239      0.21164042
H      -9.42702681     -0.89649220     -1.27730416
H     -10.51425430     -0.11353409     -0.12602226
H      -8.20369879      0.81051598      0.06663168
H      -8.76705421      0.05839299      1.55474411
H      -6.49572602     -0.58361659      1.23426286
H      -7.48474314     -2.02276767      1.00450720
H      -6.34675193     -0.29986945     -1.26760184
H      -7.31215206     -1.74727215     -1.48142984
H      -5.62174956     -3.15638862     -0.43361059
H      -4.97222120     -2.27609067     -1.80614184
H      -3.35854780     -2.37352549      0.01751028
H      -4.48639186     -1.65472217      1.15070292
H      -3.38636758     -0.27949245     -1.35519448
H      -4.47151562      0.47501933     -0.18355785
H      -2.77028732      0.07863533      1.62421684
H      -1.64663835     -0.54216643      0.41935503
H      -2.86231424      2.27548044      0.40179117
H      -1.29760368      1.85284477      1.08544669
H      -0.52741482      1.06511278     -1.19039690
H      -2.08886148      1.49911016     -1.85288543
H      -1.77562543      3.85505903     -1.32212440
H      -0.51791079      3.24047430     -2.37791398
H      -0.20815994      3.81621650      0.62249698
H       0.31872110      4.81151297     -0.71496357
H       1.70219216      2.65564554     -1.46674159
H       2.29987061      3.83351290     -0.30627117
H       1.51183839      2.41305857      1.59046203
H       0.99037283      1.17783416      0.44673979
H       3.32859292      1.00702136     -0.43090709
H       3.85186923      2.21554657      0.74650905
H       3.01370454      0.71713496      2.60503170
H       2.62869047     -0.51859035      1.40975750
H       5.41795393      0.64248335      1.93400070
H       4.80416056     -0.86749504      2.59419888
H       4.51149982     -1.75466597      0.24889675
H       5.22759487     -0.26861513     -0.38084296
H       7.30923853     -0.71505149      0.93921178
H       6.60729395     -2.22454376      1.52843175
H       6.39970508     -3.05262163     -0.82536810
H       7.10871824     -1.55405219     -1.42133007
H       8.50522119     -3.52093273      0.48624340
H       8.74934204     -3.48645760     -1.25672621
H      10.44248987     -0.43391378     -1.06359992
