30
COC(=O)c1ccc2cc(C(=O)OC)ccc2c1
C      -6.10733130      0.73891646      0.89095708
O      -4.70152602      0.66093630      1.13144479
C      -3.97287535      0.33353894      0.03524250
O      -4.41949021      0.11416622     -1.07978644
C      -2.52267547      0.27235010      0.36522801
C      -2.03310955      0.52763609      1.65047810
C      -0.66060966      0.45631891      1.90575272
C       0.24432529      0.12953733      0.88397888
C       1.62527039      0.05485231      1.12837700
C       2.52267662     -0.27234520      0.10176397
C       3.97287682     -0.33353821      0.43174693
O       4.41949667     -0.11415962      1.54677211
O       4.70152154     -0.66094919     -0.66445500
C       6.10732811     -0.73893027     -0.42397510
C       2.03311006     -0.52762843     -1.18348633
C       0.66061071     -0.45630916     -1.43876024
C      -0.24432349     -0.12952910     -0.41698593
C      -1.62526853     -0.05484642     -0.66138412
H      -6.59724438      1.00680014      1.83114729
H      -6.32743974      1.51578570      0.15201825
H      -6.49455192     -0.23073634      0.56256620
H      -2.70538241      0.78363473      2.46584806
H      -0.30294876      0.65907518      2.91384979
H       2.01016262      0.25305941      2.12821900
H       6.32744088     -1.51579167      0.31497150
H       6.59723201     -1.00682526     -1.36416606
H       6.49455348      0.23072578     -0.09560230
H       2.70538215     -0.78362582     -1.99885732
H       0.30294966     -0.65906386     -2.44685754
H      -2.01016024     -0.25305505     -1.66122612
