25
O=C(Nc1ccnc(=O)[nH]1)c1ccccc1
O      -0.54629494      0.96412378      1.61095996
C       0.03682231      0.40247536      0.68822244
N      -0.58976901     -0.35290215     -0.29067637
C      -1.93660059     -0.62017384     -0.34836808
C      -2.45017673     -1.33292834     -1.35403958
C      -3.90471716     -1.53849780     -1.27606932
N      -4.68457507     -1.09900543     -0.34934469
C      -4.12169653     -0.36688695      0.66731008
O      -4.78325972      0.09666817      1.59029663
N      -2.76664771     -0.16040744      0.62627175
C       1.51180727      0.54535166      0.55409456
C       2.31438663     -0.49092965      0.05852775
C       3.69529821     -0.31029856     -0.04978026
C       4.27635098      0.89600130      0.34212661
C       3.48241220      1.92221840      0.85318293
C       2.10252263      1.74655183      0.96488534
H      -0.02144485     -0.68705465     -1.05806243
H      -1.89726643     -1.74980759     -2.18120106
H      -4.33926546     -2.12741817     -2.10065170
H      -2.37069475      0.39210714      1.38368154
H       1.89089532     -1.45299980     -0.21435134
H       4.32300350     -1.11434168     -0.42717843
H       5.35243508      1.03278254      0.26170488
H       3.93777176      2.85730486      1.17077496
H       1.48870305      2.54806699      1.37209920
