30
Nc1c(S(=O)(=O)[O-])cc(Br)c2c1C(=O)c1ccccc1C2=O.[Na+]
N       2.24508008     -0.46161784      1.90387413
C       1.90333720      0.09255094      0.65162745
C       2.86893467      0.29993017     -0.34545562
S       4.65634773      0.23831098     -0.01629523
O       5.12706012      1.45670554     -0.67000535
O       5.03306549     -1.01301633     -0.66431216
O       4.74404812      0.25430991      1.44345569
C       2.50661236      0.64070598     -1.65505866
C       1.16424361      0.74835652     -2.01352105
Br      0.84622281      1.12705615     -3.85121844
C       0.16479515      0.53797009     -1.04867904
C       0.54143267      0.20878158      0.27287976
C      -0.52188959     -0.00473843      1.29633062
O      -0.29941421      0.05641027      2.50191742
C      -1.89546595     -0.27582803      0.85183402
C      -2.83382696     -0.81005151      1.74457556
C      -4.14422123     -1.04175252      1.32373950
C      -4.52071555     -0.73108596      0.01758706
C      -3.58645751     -0.18899264     -0.86702080
C      -2.26786684      0.03353960     -0.44705678
C      -1.28720831      0.63207845     -1.36875169
O      -1.71967081      1.19910369     -2.36388345
Na      0.00000000      0.00000000      0.00000000
H       3.22844504     -0.24315757      2.15101912
H       1.59156706     -0.21175438      2.64834456
H       3.29932706      0.80096637     -2.38596083
H      -2.54364150     -1.04440293      2.76731352
H      -4.87052052     -1.45870046      2.01722896
H      -5.54241328     -0.90428605     -0.31167094
H      -3.88720690      0.06260843     -1.88255215
