42
CCCCCCCCOC(=O)c1cc(O)c(O)c(O)c1
C       6.26544846      1.74158445     -1.53128350
C       5.08027934      0.83629229     -1.23631972
C       4.57300981      1.02594184      0.19268163
C       3.36585305      0.12908943      0.47847318
C       2.85904529      0.32391466      1.90947719
C       1.69751534     -0.60504799      2.27392675
C       0.41054184     -0.29084185      1.51255679
C      -0.74318863     -1.17796134      1.97492056
O      -1.95135122     -0.81498841      1.28629893
C      -2.12802521     -1.38882197      0.06894078
O      -1.36479934     -2.17151581     -0.47265868
C      -3.39476741     -0.91040130     -0.54810076
C      -3.64134171     -1.24960608     -1.88827927
C      -4.81037428     -0.81646431     -2.49892405
O      -5.04584793     -1.14050877     -3.80304049
C      -5.73420229     -0.05793534     -1.79330500
O      -6.87709428      0.35418052     -2.42301257
C      -5.49833761      0.27709242     -0.46507880
O      -6.44522309      1.02440408      0.17863641
C      -4.33225695     -0.14274987      0.16828434
H       6.61816539      1.58228470     -2.55521289
H       7.09659972      1.53613598     -0.84891926
H       5.98881128      2.79580013     -1.42801405
H       5.37736405     -0.20701682     -1.39041227
H       4.27651308      1.05279742     -1.94967815
H       4.29477269      2.07506537      0.34796642
H       5.37832384      0.79749476      0.90135838
H       2.57067751      0.36111417     -0.23873653
H       3.64394715     -0.92114518      0.32730429
H       3.68290082      0.13115778      2.60769353
H       2.55622384      1.36788790      2.05848683
H       1.50712343     -0.50769432      3.34961532
H       1.98936513     -1.64729187      2.09781440
H       0.55891288     -0.42255992      0.43545240
H       0.13419028      0.76181508      1.65221978
H      -0.51952530     -2.24366608      1.84124988
H      -0.93156318     -1.02162292      3.04321398
H      -2.92750175     -1.84376841     -2.45351834
H      -5.91181439     -0.73313972     -4.01064208
H      -7.36024367      0.86243589     -1.73916164
H      -6.15986839      1.16009736      1.09895895
H      -4.14825761      0.11816202      1.20595964
