41
CCC(C)c1cc(S(=O)(=O)[O-])cc(-n2nc3ccccc3n2)c1O.[Na+]
C      -4.82359004     -2.09561937      0.03112146
C      -3.75356873     -1.13033409     -0.46085086
C      -2.88974486     -0.54337240      0.67494728
C      -3.70276458      0.32278718      1.64603858
C      -1.71378525      0.23898409      0.09741707
C      -1.94655270      1.42595912     -0.62031873
C      -0.87994504      2.15087859     -1.15716001
S      -1.18451812      3.67345621     -2.09388407
O      -0.41759092      3.44178109     -3.31449933
O      -2.63490531      3.68423177     -2.26527284
O      -0.65189748      4.68831510     -1.19026908
C       0.43748944      1.71448732     -1.00536127
C       0.69489444      0.53214595     -0.29811056
N       2.04105161      0.10338857     -0.15307552
N       3.08597206      0.79438315     -0.66622067
C       4.14853364      0.06443176     -0.31329873
C       5.51050727      0.29553157     -0.57471027
C       6.37947138     -0.68203433     -0.05285507
C       5.92740987     -1.81299184      0.67933083
C       4.56797080     -2.06230312      0.95169732
C       3.68365371     -1.09641894      0.43821821
N       2.34667205     -1.04449482      0.52420166
C      -0.38236689     -0.20158583      0.24909628
O      -0.19667168     -1.37129875      0.94747156
Na      0.00000000      0.00000000      0.00000000
H      -5.33941927     -2.54918289     -0.82144437
H      -4.38311015     -2.90111171      0.62699698
H      -5.57628363     -1.58489505      0.63857219
H      -4.23773058     -0.32935879     -1.03300553
H      -3.10697808     -1.66895954     -1.16589826
H      -2.50911927     -1.38565351      1.26482509
H      -3.05027901      0.79321535      2.39048012
H      -4.43555846     -0.28082497      2.19100168
H      -4.24828731      1.11865662      1.12790004
H      -2.95779503      1.79819704     -0.77059442
H       1.23307150      2.31221534     -1.44770813
H       5.85263476      1.15719352     -1.13245480
H       7.45041820     -0.56425872     -0.21940053
H       6.66936988     -2.52168057      1.04776605
H       4.22725192     -2.92408134      1.50924780
H       0.76608986     -1.55977876      0.97747973
