46
CC(CO)C1CCCCCCCCCCC1
C      -3.63172258     -1.45581051     -0.87294487
C      -3.01818248     -0.33122948     -0.02084923
C      -4.12268918      0.67732924      0.35739255
O      -5.20626189      0.03393031      1.02057441
C      -1.80213422      0.36282779     -0.73133783
C      -0.73310533     -0.66061236     -1.21174508
C       0.09226108     -1.29872061     -0.08995066
C       1.26172319     -2.12078710     -0.64316528
C       2.31050035     -2.45082114      0.42449718
C       3.51037526     -1.48972041      0.49682298
C       3.20243096     -0.06376561      0.97316496
C       3.02167838      0.92623479     -0.18497509
C       2.55906285      2.32345668      0.25886569
C       1.11092722      2.38615756      0.76276465
C       0.07178251      2.16779643     -0.34952617
C      -1.20552508      1.48540412      0.17109477
H      -3.89331968     -1.09336420     -1.87260505
H      -4.53893753     -1.86276934     -0.41465241
H      -2.94419380     -2.30004689     -0.97760385
H      -2.66677501     -0.79788565      0.90897624
H      -3.75597827      1.44794528      1.03955293
H      -4.51993209      1.17218729     -0.53482970
H      -4.84596294     -0.40144250      1.81192297
H      -2.18940768      0.85084815     -1.63705543
H      -0.05866660     -0.16279567     -1.91718925
H      -1.19457599     -1.44865578     -1.81565071
H       0.47656058     -0.52597069      0.57402330
H      -0.54655674     -1.94572992      0.52241198
H       1.73810196     -1.61943770     -1.49262419
H       0.85064358     -3.06024039     -1.03451895
H       1.84205470     -2.54080977      1.41199962
H       2.71774723     -3.44326204      0.19027901
H       4.21815555     -1.92861615      1.21261407
H       4.03111334     -1.47010671     -0.46817270
H       2.34414441     -0.07182881      1.64990281
H       4.05292431      0.28753968      1.57218564
H       2.33732671      0.52283705     -0.93363894
H       3.98899696      1.03667705     -0.69213972
H       3.22605939      2.68393828      1.05145585
H       2.67126199      3.01693335     -0.58366146
H       0.98433365      1.66470264      1.57545979
H       0.93561660      3.37372236      1.20762562
H       0.51221649      1.62553891     -1.18380643
H      -0.19802653      3.14575503     -0.76962445
H      -1.95065882      2.27973437      0.29549044
H      -1.04538683      1.07293309      1.17438027
