27
ClC1=C(Cl)[C@]2(Cl)[C@H]3[C@H]([C@@H]4C[C@H]3[C@H]3O[C@@H]43)[C@@]1(Cl)C2(Cl)Cl
Cl      2.18960184      2.75172590      0.11947488
C       1.58615476      1.20774906      0.47999416
C       2.04993021      0.02947589      0.04205607
Cl      3.36716570     -0.23999401     -0.99248042
C       1.26704864     -1.06180979      0.73764125
Cl      1.99423318     -2.65799903      0.75610257
C      -0.21994782     -1.08217146      0.26565064
C      -0.76595883      0.30506362      0.78121729
C      -1.52406261      0.85920265     -0.45232411
C      -2.13664928     -0.48704211     -0.95227621
C      -0.73817601     -1.13760866     -1.19441187
C      -0.07623647     -0.10322815     -2.08484586
O      -0.93898960      0.70615123     -2.89458602
C      -0.59245974      1.20843088     -1.59738102
C       0.48389876      0.92786925      1.47715166
Cl      0.06923016      2.23259401      2.57383263
C       1.12509403     -0.35337808      2.14233211
Cl      2.68564827     -0.06358398      3.01524654
Cl      0.07059719     -1.20949157      3.32902757
H      -0.74822004     -1.88270426      0.80543704
H      -1.53288820      0.11084231      1.54632951
H      -2.25916500      1.63300062     -0.22380901
H      -2.73999266     -1.00488507     -0.19779964
H      -2.73459217     -0.38348730     -1.86416189
H      -0.77440656     -2.13957482     -1.62582009
H       0.91947070     -0.28416391     -2.44235682
H      -0.02632847      2.11901676     -1.54924094
