15
O=C(O)c1cc(Cl)c(Cl)cc1Cl
O      -2.73073758     -0.66348898      1.25669061
C      -2.10280547     -0.01326066      0.44699412
O      -2.70441814      0.89633424     -0.34168254
C      -0.64995678     -0.07475854      0.17358465
C       0.03108813      1.11807414     -0.12361557
C       1.40847104      1.10734127     -0.35934550
Cl      2.17440881      2.61361555     -0.71507075
C       2.11524204     -0.09765878     -0.29835363
Cl      3.81713242     -0.18805821     -0.57811541
C       1.44082426     -1.28636623     -0.00515271
C       0.06077623     -1.27961841      0.23119592
Cl     -0.68628268     -2.80623864      0.53525670
H      -3.65206121      0.83833669     -0.09222976
H      -0.51396303      2.05980181     -0.16471825
H       1.99228196     -2.22405525      0.03456210
