30
C=C(C)C(=O)OCCOC(=O)CCC(=O)O
C      -5.49040213      0.63338218     -0.50105303
C      -4.40546975      0.40286100      0.25773443
C      -4.36760214      0.69673740      1.72508669
C      -3.19921219     -0.16902622     -0.40545693
O      -3.12638716     -0.44198814     -1.59393861
O      -2.20256916     -0.32985630      0.50038221
C      -0.98572431     -0.89155763     -0.01406211
C      -0.12198038      0.17524055     -0.68260164
O       1.09753438     -0.38419442     -1.19472563
C       2.09907328     -0.53904211     -0.28570374
O       2.00642889     -0.30406326      0.91054493
C       3.32504468     -1.09439345     -0.96961366
C       4.55324330     -1.00709687     -0.07161371
C       4.98861885      0.41965499      0.11836256
O       4.58426871      1.39825842     -0.48559059
O       5.95338513      0.53385423      1.05058229
H      -6.39999874      1.04824560     -0.07911977
H      -5.50029017      0.41353760     -1.56599584
H      -3.58514589      1.42824283      1.95239676
H      -5.31701494      1.11096658      2.08151274
H      -4.17342691     -0.21659039      2.29701796
H      -0.45414357     -1.33442434      0.83473174
H      -1.19107216     -1.72386401     -0.69907523
H      -0.65321009      0.61692108     -1.53229860
H       0.08236306      1.00778236      0.00244387
H       3.12369020     -2.14339571     -1.21223296
H       3.49320663     -0.54254571     -1.90135083
H       4.34755438     -1.44884280      0.90955716
H       5.38283350     -1.55012023     -0.53700786
H       6.13640470      1.49601571      1.09108740
