33
CCOP(=S)(OCC)N1C(=O)c2ccccc2C1=O
C      -2.72826849      3.01844738      2.01170530
C      -2.66345844      2.34587122      0.65564830
O      -1.37207706      1.78416956      0.49412623
P      -1.13851770      0.63559648     -0.63268422
S      -1.66980107      1.17184854     -2.43186281
O      -2.03629926     -0.53160747      0.05079941
C      -2.57850182     -1.57759977     -0.73898000
C      -2.88116425     -2.75723244      0.16257757
N       0.46421825      0.20199505     -0.40461863
C       1.46122783      1.12417462     -0.29477648
O       1.41091991      2.33794994     -0.31872104
C       2.71149605      0.38429029     -0.16475740
C       4.00815550      0.82978820      0.00078584
C       5.01074486     -0.14157863      0.08268687
C       4.69672720     -1.51384658     -0.00553325
C       3.37493200     -1.93722982     -0.17719838
C       2.40388575     -0.95774980     -0.25116216
C       0.95974457     -1.06250985     -0.43654505
O       0.39726712     -2.12548902     -0.60869404
H      -2.53906850      2.29354111      2.81036015
H      -1.95870808      3.79295758      2.09568890
H      -3.70836591      3.47536439      2.17449448
H      -2.83501315      3.08416060     -0.13325318
H      -3.43140906      1.56915629      0.58842411
H      -3.50473050     -1.22173685     -1.20100178
H      -1.88622644     -1.87373473     -1.53154214
H      -3.31380361     -3.58353538     -0.40829192
H      -3.58267377     -2.46848711      0.95233649
H      -1.97130508     -3.10902307      0.65951569
H       4.23584226      1.88936675      0.06206680
H       6.04790423      0.16345465      0.21324901
H       5.49568807     -2.25099901      0.05810998
H       3.12063860     -2.98977313     -0.25152542
