33
C[Si](O[Si](C)(C)C)O[Si](C)(C)C
C       0.03988157      2.79611830      0.22475847
Si     -0.00440124      1.12195161      0.99868057
O      -0.98026197      0.04691004      0.20155332
Si     -2.58639623     -0.26663083     -0.12310114
C      -3.36648823      1.15254683     -1.07770705
C      -2.73782140     -1.82825295     -1.16021786
C      -3.55572374     -0.51793353      1.46762832
O       1.49808480      0.45535609      1.21504297
Si      2.69534393     -0.33140975      0.35370203
C       3.29646652      0.72936902     -1.07821020
C       4.16293972     -0.69002737      1.47537424
C       2.06860134     -1.96455793     -0.33503012
H       0.41590710      2.74858518     -0.80187525
H      -0.95712640      3.24583075      0.19281965
H       0.69087331      3.47343782      0.78597665
H      -2.82468597      1.33144973     -2.01109973
H      -3.34745069      2.07306030     -0.48703718
H      -4.40800479      0.92466416     -1.32295986
H      -2.31259035     -2.68449176     -0.62843228
H      -2.20367124     -1.71252959     -2.10786902
H      -3.78718853     -2.04536768     -1.38012331
H      -4.60244654     -0.74823271      1.24809222
H      -3.52572968      0.38424502      2.08561397
H      -3.13601627     -1.34572347      2.04676792
H       3.67482823      1.68869676     -0.71312249
H       4.10260322      0.22467693     -1.61877981
H       2.48226533      0.92586924     -1.78193734
H       3.85938457     -1.32517816      2.31270337
H       4.95441170     -1.20387438      0.92198515
H       4.57285901      0.24012684      1.87968295
H       1.71019475     -2.60982121      0.47239437
H       1.24377826     -1.79880034     -1.03431449
H       2.86757994     -2.49006298     -0.86632788
