27
CCCCSc1cc(O)cc(O)c1
C       4.90751070      0.35089031     -0.02379104
C       3.42769808      0.41647217      0.32296692
C       2.55616706      0.29219287     -0.92996954
C       1.05895930      0.44793061     -0.65450968
S       0.38627517     -0.96156287      0.29491305
C      -1.36277093     -0.61150374      0.20537504
C      -2.23094720     -1.63838529     -0.18528244
C      -3.60175832     -1.39680598     -0.25429869
O      -4.47561381     -2.37229562     -0.63781951
C      -4.12764104     -0.15112219      0.06666045
C      -3.26208280      0.85872244      0.46947226
O      -3.72527613      2.09722044      0.80619515
C      -1.88913550      0.63828423      0.54632772
H       5.18838177      1.16277183     -0.70223228
H       5.15558365     -0.60081186     -0.50447555
H       5.51349326      0.44179260      0.88311917
H       3.21990301      1.36752767      0.82693215
H       3.19939558     -0.38476700      1.03373695
H       2.85003013      1.07839117     -1.63738427
H       2.75237501     -0.66336992     -1.43247860
H       0.87779174      1.38083981     -0.11155489
H       0.52788633      0.50295883     -1.61106392
H      -1.83007542     -2.61624636     -0.43560757
H      -3.97633355     -3.18850823     -0.80909099
H      -5.19868495      0.00798692      0.00331094
H      -4.69409047      2.09656085      0.72743985
H      -1.24704065      1.44483628      0.88696143
