57
O=C(NCc1ccc(OC(F)(F)F)cc1)C1c2ccccc2C(=O)N1CCN1CCOCC1
O       1.26868003     -2.40170889      1.72805252
C       0.90565358     -1.93527732      0.64825446
N       1.76100823     -1.76819388     -0.42283106
C       3.19048792     -1.87832094     -0.28311315
C       3.79404629     -0.52543201      0.00011299
C       3.94356252     -0.08000521      1.32143634
C       4.47298952      1.18687747      1.59461918
C       4.84625789      2.02636148      0.54870089
O       5.32594550      3.29514009      0.68824969
C       6.14344391      3.52963822      1.83343141
F       5.39674837      3.59407773      2.96460786
F       7.09768601      2.57482490      1.96901462
F       6.76464287      4.71922963      1.67483407
C       4.67895301      1.59607710     -0.77120452
C       4.16268423      0.32787216     -1.04596329
C      -0.57060995     -1.60792783      0.34777667
C      -1.31400063     -2.80694009     -0.16545114
C      -1.51570582     -4.04470111      0.42310926
C      -2.26194188     -4.99742011     -0.28100367
C      -2.79911767     -4.70509333     -1.54869087
C      -2.59622546     -3.45431750     -2.13460800
C      -1.85135348     -2.53267136     -1.42237951
C      -1.49956994     -1.15663578     -1.78882042
O      -1.84982651     -0.59936014     -2.81208208
N      -0.71908755     -0.65034480     -0.76034465
C      -0.45791751      0.77705435     -0.59805040
C      -1.37272053      1.48013732      0.43405062
N      -2.79953307      1.13574284      0.34485049
C      -3.53019809      1.59066877      1.54635209
C      -5.03908069      1.69405825      1.28472012
O      -5.36166053      2.69109391      0.30363271
C      -4.31818741      2.88657927     -0.66095448
C      -3.44995700      1.63663092     -0.88647158
H       1.38741432     -1.27884235     -1.23014542
H       3.44526619     -2.58460546      0.51579216
H       3.58852024     -2.28756785     -1.21701149
H       3.63601354     -0.71974953      2.14988839
H       4.54823137      1.48881357      2.63635756
H       4.95070077      2.25095307     -1.59563856
H       4.04226661      0.01779971     -2.08403287
H      -1.05749269     -1.20487017      1.24080110
H      -1.10610806     -4.27634129      1.40285646
H      -2.43129572     -5.97835707      0.15976819
H      -3.38188852     -5.45932378     -2.07331639
H      -3.00800528     -3.20680503     -3.10784708
H      -0.56378002      1.26000886     -1.57520253
H       0.58785139      0.89512378     -0.29260961
H      -1.01109601      1.18418527      1.42801871
H      -1.22587801      2.56488845      0.36374375
H      -3.16670505      2.57629073      1.86317923
H      -3.34800761      0.88332758      2.36322203
H      -5.44681605      0.73246358      0.94660861
H      -5.56254803      1.96048260      2.20849478
H      -4.79391905      3.18671943     -1.59884074
H      -3.70061151      3.72932763     -0.32900789
H      -2.72947860      1.83821998     -1.68627104
H      -4.09873035      0.83014416     -1.25147200
