40
CCN(C(=O)N(CC)c1ccccc1)c1ccccc1
C      -2.73591288     -2.53107908      1.23474900
C      -1.39169956     -2.01352572      1.73208209
N      -0.72563319     -1.12290529      0.77301082
C       0.13079708     -1.74508826     -0.15011594
O       0.02966210     -2.95167462     -0.39793974
N       1.10867033     -0.95408860     -0.77685243
C       1.73983022     -1.52202649     -1.97656285
C       0.87873098     -1.33307861     -3.21708153
C       1.76481965      0.16554503     -0.16235694
C       1.90545036      0.26040931      1.22941694
C       2.55897686      1.34928015      1.81468768
C       3.08811703      2.35823353      1.01558464
C       2.96827870      2.27629412     -0.36840123
C       2.31634896      1.18585710     -0.95230843
C      -1.31197027      0.17523392      0.56255748
C      -1.44946768      0.71486533     -0.72466683
C      -2.03668668      1.96804313     -0.92520811
C      -2.50281190      2.70187209      0.16047816
C      -2.38502592      2.18052084      1.44486794
C      -1.79903729      0.92576278      1.64327164
H      -3.16448188     -3.22695160      1.96272088
H      -2.63167395     -3.05727404      0.28064873
H      -3.44954281     -1.71410243      1.08896563
H      -1.50530622     -1.51525111      2.69896738
H      -0.73605918     -2.87223746      1.92485299
H       2.73440962     -1.09268201     -2.14088983
H       1.90558164     -2.59459603     -1.81895685
H      -0.09622430     -1.81736872     -3.10091633
H       1.37241956     -1.76873305     -4.09117694
H       0.70275129     -0.27159382     -3.41762827
H       1.53448059     -0.52404229      1.88250505
H       2.65721608      1.40312011      2.89561623
H       3.59351415      3.20579463      1.47059605
H       3.37556679      3.06395966     -0.99674667
H       2.21670731      1.16859983     -2.03353802
H      -1.13092843      0.15804972     -1.59990151
H      -2.13335514      2.36438422     -1.93244600
H      -2.95695363      3.67683714      0.00595499
H      -2.74175065      2.75213582      2.29769106
H      -1.69780772      0.57350079      2.66446907
