30
O=S(=O)([O-])CCCSSCCCS(=O)(=O)[O-].[Na+].[Na+]
O      -5.93667389     -0.56676438     -0.99558078
S      -5.51378914     -0.54753619      0.40315076
O      -5.19520885     -1.85413896      0.97367167
O      -6.31777452      0.31524288      1.26790655
C      -3.94297640      0.29002835      0.35738554
C      -2.90054391     -0.43742406     -0.48781598
C      -1.61344215      0.38046127     -0.56215706
S      -0.37498819     -0.47384872     -1.59604066
S       1.06207266      0.98084473     -1.85067791
C       2.13634356      0.80665888     -0.37218301
C       2.98124561     -0.46409632     -0.42959163
C       3.76541309     -0.73170139      0.85379045
S       5.04938984      0.44746063      1.21294032
O       5.79408750      0.54748199     -0.03978403
O       5.78159480     -0.18920043      2.30664031
O       4.31614540      1.65136713      1.59601565
Na      0.00000000      0.00000000      0.00000000
Na      0.00000000      0.00000000      0.00000000
H      -3.59893610      0.38804046      1.39279230
H      -4.13185024      1.29398549     -0.03869018
H      -2.70000025     -1.42473594     -0.05402212
H      -3.29680494     -0.60477077     -1.49689414
H      -1.19720714      0.52646727      0.43996179
H      -1.82708958      1.36115598     -1.00060775
H       1.51529561      0.84031571      0.52869647
H       2.77818159      1.69122530     -0.36855657
H       2.33708303     -1.33543849     -0.59616774
H       3.66803702     -0.41350929     -1.28312192
H       4.26175612     -1.70520785      0.76579211
H       3.10063946     -0.77236326      1.72315630
