21
CNC(=O)c1ccc(N)cc1
C      -3.87078114      0.51118711      0.37466579
N      -2.43896724      0.61331994      0.24484767
C      -1.68223605     -0.50691303     -0.03655955
O      -2.16498288     -1.61115262     -0.26004994
C      -0.20432886     -0.32588537     -0.01684441
C       0.39887816      0.89964860     -0.31885282
C       1.79284047      1.01950648     -0.28508822
C       2.60056963     -0.08487648      0.00030829
N       3.98198996      0.07383665      0.15173068
C       1.98927739     -1.29317616      0.34344026
C       0.59753200     -1.42405230      0.30963092
H      -4.29670758      1.51586716      0.32524596
H      -4.10389194      0.05658906      1.34120562
H      -4.28101465     -0.10814525     -0.42757547
H      -1.98375715      1.40350665      0.68077233
H      -0.19439937      1.76563562     -0.59636477
H       2.24525755      1.98566901     -0.49404357
H       4.37467406      0.82873191     -0.40187843
H       4.50798103     -0.78905344      0.05077716
H       2.59136068     -2.14940790      0.63634043
H       0.14070591     -2.38083562      0.55449704
