38
CC(C)=CCC1(C(C)(C)C)C(=O)NC(=O)NC1=O
C       4.06331794      0.57380597      1.36079933
C       2.93940067     -0.21359136      0.73601824
C       3.36236488     -1.04671147     -0.44348400
C       1.69114173     -0.13641030      1.23740196
C       0.43999110     -0.85324398      0.76754280
C      -0.61497316      0.06188121      0.06402802
C      -1.95449181     -0.73629433     -0.32076144
C      -2.69794718     -1.26261086      0.93339239
C      -1.66531363     -1.97479617     -1.20596096
C      -2.96313830      0.14372441     -1.09970875
C       0.03148186      0.60754802     -1.21258473
O       0.69703293     -0.07694550     -1.98873772
N      -0.20611988      1.91597762     -1.52553447
C      -0.68157787      2.86137350     -0.67669245
O      -0.57468825      4.05812042     -0.92235373
N      -1.22413293      2.42211354      0.48587323
C      -0.96821730      1.19754191      1.02962306
O      -1.06746849      1.05064432      2.24754158
H       3.72786854      1.17622197      2.21156539
H       4.84585271     -0.10230382      1.72050831
H       4.50238292      1.25536034      0.62480311
H       2.56238518     -1.66375833     -0.85573454
H       4.17192244     -1.72454181     -0.15215904
H       3.72866443     -0.39944797     -1.24723521
H       1.53804898      0.48988146      2.11876937
H       0.00456893     -1.31525264      1.66157312
H       0.71480461     -1.68747945      0.11737219
H      -3.04052378     -0.44831076      1.57899417
H      -2.07462115     -1.93573295      1.52882845
H      -3.59203390     -1.83064786      0.64781623
H      -1.19104775     -1.70262501     -2.15291022
H      -2.59542127     -2.49755274     -1.46164488
H      -1.02854473     -2.70419036     -0.69675692
H      -2.54718958      0.50267449     -2.04611892
H      -3.28981996      1.00811034     -0.51413206
H      -3.86711433     -0.42540777     -1.34939802
H       0.26104209      2.26081776     -2.35296545
H      -1.43788671      3.15205814      1.15242255
