53
CC(C)=NOCCOC(=O)C(C)Oc1ccc(Oc2cnc3cc(Cl)ccc3n2)cc1
C       4.80620121     -2.57481453     -0.99371260
C       3.88583780     -2.01835227     -2.05295857
C       3.36688875     -2.97259602     -3.09643727
N       3.50638333     -0.77669869     -2.10729003
O       4.06434599     -0.02998843     -1.05969048
C       3.65047033      1.33314048     -1.20390028
C       4.29081484      2.15221018     -0.08989083
O       3.75550699      1.78653230      1.19676399
C       2.56804906      2.37616204      1.52949058
O       1.97037321      3.17247838      0.81614297
C       2.09694633      1.86551972      2.89716011
C       3.09192837      2.27738289      3.97810863
O       0.83447245      2.43324993      3.27087076
C      -0.21722726      1.64296445      2.89977889
C      -1.02281097      2.06021762      1.84284378
C      -2.14096873      1.30546622      1.48326779
C      -2.44502085      0.13588035      2.18739816
O      -3.55372725     -0.63776431      1.92394584
C      -3.85413992     -0.85217161      0.59922576
C      -2.98333640     -1.51971512     -0.24771770
N      -3.28860288     -1.78566096     -1.54025225
C      -4.50231827     -1.37643181     -1.95941101
C      -4.88154965     -1.60885308     -3.27365133
C      -6.13049297     -1.20302618     -3.73586321
Cl     -6.57764026     -1.49860280     -5.36947077
C      -7.01709722     -0.55684254     -2.88441607
C      -6.64113957     -0.31388464     -1.56265840
C      -5.40115380     -0.71093386     -1.08237459
N      -5.07956177     -0.45435126      0.19826485
C      -1.65512254     -0.25659362      3.27074266
C      -0.53814378      0.49967074      3.63032280
H       5.74724400     -2.01241091     -0.99103279
H       5.02812598     -3.62788133     -1.19646667
H       4.32675000     -2.49744801     -0.01092397
H       4.20916536     -3.48274160     -3.57310824
H       2.79551022     -2.43877617     -3.85955912
H       2.72340698     -3.71580178     -2.61667244
H       2.55739442      1.37637556     -1.15281227
H       3.98962192      1.70602146     -2.17675274
H       4.16613144      3.22756739     -0.26378934
H       5.36598374      1.94839567     -0.04431346
H       2.04878993      0.76899683      2.84877068
H       4.08297245      1.84727821      3.80400665
H       2.74241821      1.95479423      4.96599335
H       3.19630885      3.36851133      4.01694777
H      -0.78619339      2.97694418      1.30745875
H      -2.77570892      1.65485542      0.67322384
H      -2.01333672     -1.86796399      0.08924002
H      -4.18592941     -2.10969252     -3.94116552
H      -7.99429671     -0.23449708     -3.23735020
H      -7.32789451      0.19908525     -0.89156858
H      -1.91739805     -1.14191113      3.84384950
H       0.06276963      0.20670545      4.48650976
