55
CN(C)[C@@H]1C(=O)/C(=C(\N)O)C(=O)[C@@]2(O)C(=O)C3=C(O)c4c(O)ccc(Cl)c4[C@@H](O)[C@H]3C[C@@H]12.[Cl-].[H+]
C      -3.74202303     -1.48535507     -1.59007810
N      -3.20296238     -1.77228435     -0.32797716
C      -2.96059705     -3.12318408     -0.00728854
C      -2.44568862     -0.79589635      0.35287668
C      -3.24322283      0.39718670      0.65642082
O      -4.38405385      0.24272524      1.16180143
C      -2.81160103      1.76646178      0.41496637
C      -3.55223180      2.77611892      0.81817094
N      -4.79434964      2.60252686      1.50083974
O      -3.07115708      4.06657105      0.54960602
C      -1.54305569      1.92477521     -0.28090707
O      -0.95145052      3.02988411     -0.23082885
C      -1.02069415      0.75942722     -1.01470035
O      -1.73430675      0.70779057     -2.23442562
C       0.38114174      1.07429796     -1.37887641
O       0.55835522      1.96986589     -2.25802392
C       1.52621222      0.40327513     -0.77250833
C       2.69379791      1.01732137     -0.76407011
O       2.79231032      2.28505111     -1.33714080
C       3.85603365      0.40229728     -0.17438159
C       5.09103521      1.04630684     -0.16831381
O       5.29355580      2.26585264     -0.69614340
C       6.18667558      0.37628419      0.42641801
C       5.98546260     -0.85364328      0.95948151
C       4.77270547     -1.49510593      0.95780583
Cl      4.62782862     -3.09400031      1.68059211
C       3.68800313     -0.85874498      0.38198830
C       2.41622755     -1.58780722      0.41529476
O       2.06892775     -1.91162288      1.74428972
C       1.25782243     -0.93979911     -0.21812478
C       0.02722946     -0.78606233      0.65116955
C      -1.14308576     -0.54685322     -0.32002945
Cl      0.00000000      0.00000000      0.00000000
H       0.00000000      0.00000000      0.00000000
H      -4.59733175     -2.20161639     -1.76953358
H      -2.99163596     -1.72633800     -2.37274253
H      -4.14382971     -0.48975889     -1.74641347
H      -3.47796860     -3.52969848      0.85971060
H      -1.84808374     -3.27049657      0.10637919
H      -3.21735574     -3.74909282     -0.90655577
H      -2.20705467     -1.24313723      1.37110552
H      -5.64974085      2.56299834      0.90606538
H      -4.86785234      2.51772296      2.53480961
H      -2.95882658      4.29514228     -0.43314682
H      -2.25840820      1.51160215     -2.39382805
H       2.31487712      3.02446662     -0.79897200
H       4.82748398      2.96334881     -1.14505999
H       7.12998761      0.88833066      0.42157665
H       6.82890120     -1.38818252      1.42652929
H       2.63481326     -2.59029979     -0.06436026
H       1.92128854     -2.87958456      1.87535307
H       0.91265683     -1.58067215     -1.08443660
H       0.19022795      0.08924791      1.29014013
H      -0.17442706     -1.72350349      1.19393834
H      -0.99056575     -1.34413979     -1.11054574
