54
CC(=O)[O-].COc1ccc2cc(C3N(C)c4cc(S(C)(=O)=O)ccc4[NH+]3C)oc2c1
C      -0.63861021      0.04916691     -0.01619597
C       0.87482566     -0.07343644      0.02073645
O       1.32214378     -1.25101971     -0.05736193
O       1.49272354      1.02286345      0.12498209
C      -7.95670916     -0.65524434     -0.90121819
O      -6.89190465     -0.24593800     -0.04995899
C      -5.61939087     -0.57798805     -0.43380217
C      -5.27096468     -1.25580395     -1.60668749
C      -3.92816706     -1.54263571     -1.91104405
C      -2.92933098     -1.13640876     -1.01169596
C      -1.51341649     -1.22847443     -0.95553321
C      -1.12351040     -0.63179203      0.22841800
C       0.19909321     -0.38745091      0.88457315
N       1.35741679     -0.95740407      0.17678748
C       1.69519906     -2.35151591      0.44147055
C       2.38040771     -0.00833238      0.29503041
C       3.72382987     -0.15235114     -0.00712822
C       4.56054577      0.96373115      0.14134027
S       6.31479216      0.76765318     -0.13002943
C       6.50611192      1.01801470     -1.87589626
O       6.61868459     -0.61472436      0.18382301
O       6.96446658      1.85819682      0.56989230
C       4.06025309      2.20400856      0.58043107
C       2.70178965      2.34405012      0.87279629
C       1.90064054      1.22281655      0.73848267
N       0.47714663      1.11274980      0.99215777
C       0.04308375      1.70411529      2.28310394
O      -2.21979903     -0.15800156      0.89388267
C      -3.31332601     -0.46952895      0.14406950
C      -4.63161425     -0.17090569      0.47193482
H      -1.00182313      0.41438074      0.94906797
H      -0.93766420      0.75371369     -0.79807472
H      -1.11159545     -0.91566865     -0.22315389
H      -7.86170806     -0.21019207     -1.89695319
H      -8.89196550     -0.29357002     -0.46345085
H      -8.01307908     -1.74745755     -0.95890784
H      -6.02609053     -1.58107013     -2.31667230
H      -3.67953877     -2.07256701     -2.82659254
H      -0.85998788     -1.68153365     -1.69034636
H       0.17362186     -0.77966289      1.91213552
H       2.10521117     -2.47841056      1.44996187
H       2.41986429     -2.72646747     -0.28852569
H       0.80244523     -2.98094154      0.35711229
H       4.12989304     -1.10243294     -0.34446444
H       6.15682025      2.02023154     -2.13047616
H       5.93152714      0.25908676     -2.40967122
H       7.56585373      0.92119559     -2.11963965
H       4.73098530      3.05447248      0.70988938
H       2.31755146      3.30178996      1.20663268
H      -0.01318648      1.54463355      0.20300606
H       0.61435954      1.25419971      3.10184005
H       0.20405812      2.78492607      2.24375950
H      -1.02469940      1.51283868      2.41539257
H      -4.88726317      0.35009556      1.38659790
