34
CC(=O)O[C@H]1C[C@H]2CC[C@@]1(C)C2(C)C
C       5.19815876      0.24378680      0.00000000
C       3.78919187     -0.27081238      0.00000000
O       3.53036439     -1.74831308      0.00000000
O       2.63905247      0.69208915      0.00000000
C       1.23008558      0.17748997      0.00000000
C       0.86558258      1.63252865      0.00000000
C      -0.63087907      1.73549737      0.00000000
C      -1.90206546      0.93920273      0.00000000
C      -1.53756245     -0.51583595      0.00000000
C      -0.04110081     -0.61880467      0.00000000
C      -0.14406953     -2.11526631      0.00000000
C      -1.19124022      0.34409686      0.00000000
C      -2.02864456     -0.90039258      0.00000000
C      -2.51644480      1.04682925      0.00000000
H       6.60712564      0.75838598      0.00000000
H       5.71275794     -1.16518008      0.00000000
H       4.68355958      1.65275369      0.00000000
H       1.88914288     -1.16996818      0.00000000
H       0.81156439      3.13155568      0.00000000
H       2.35075134      1.84294192      0.00000000
H      -1.26628297      3.09426956      0.00000000
H      -2.39195819      2.35694922      0.00000000
H      -3.31103235      0.42460355      0.00000000
H      -3.02273122     -0.72624921      0.00000000
H      -1.48354426     -2.01486298      0.00000000
H      -0.24703825     -3.61172795      0.00000000
H       1.35239211     -2.21823503      0.00000000
H      -1.62097612     -2.37746265      0.00000000
H      -2.86604891     -2.14488201      0.00000000
H      -3.49060157     -0.56471161      0.00000000
H      -1.32310584     -2.22410520      0.00000000
H      -3.84164938      1.74956164      0.00000000
H      -2.15526105      2.50269542      0.00000000
H      -3.64749252      0.06157241      0.00000000
