49
c1ccc2sc(SN(C3CCCCC3)C3CCCCC3)nc2c1
C       5.99031836     -1.41857047      0.43370909
C       6.06325035     -0.28176463      1.23359123
C       5.07782563      0.70829438      1.16508934
C       4.01150423      0.52278906      0.26913355
S       2.66227180      1.54568974     -0.04145799
C       2.07079883      0.41017666     -1.18106399
S       0.57871610      0.64039073     -2.08581457
N      -0.55773460      0.48160878     -0.87017999
C      -1.15309447      1.68128116     -0.24654180
C      -2.53361187      2.03730369     -0.83918409
C      -3.36288537      2.95334461      0.06790897
C      -2.49326726      3.82008986      0.96786223
C      -1.60447763      2.97950132      1.88710983
C      -1.20327932      1.62457211      1.28982470
C      -1.23320329     -0.79803458     -0.56207692
C      -0.30845221     -1.74509488      0.22621568
C      -1.03044421     -3.03888393      0.60392923
C      -1.61119131     -3.73753173     -0.62233270
C      -2.51362305     -2.80755769     -1.42901653
C      -1.79306584     -1.51398904     -1.81042710
N       2.81304892     -0.65678884     -1.37528259
C       3.91756541     -0.61061893     -0.54353623
C       4.92531404     -1.59247310     -0.45640320
H       6.76413348     -2.17883328      0.49833079
H       6.89755082     -0.15952014      1.92161895
H       5.13617439      1.59434682      1.78989725
H      -0.49409037      2.53220907     -0.47698052
H      -3.13351320      1.14405946     -1.04631200
H      -2.38125435      2.52694262     -1.81008927
H      -4.01861301      3.58171473     -0.54599288
H      -4.02087751      2.33789396      0.69507933
H      -1.86350246      4.46667508      0.34386246
H      -3.11858204      4.48683498      1.57231711
H      -2.11801401      2.80404846      2.84081541
H      -0.70428145      3.55830171      2.12837081
H      -1.92964088      0.87448926      1.62635818
H      -0.23216119      1.32564756      1.70314787
H      -2.10110097     -0.60803992      0.08165547
H       0.04866929     -1.25492183      1.14004210
H       0.57504043     -2.00501218     -0.36797649
H      -0.33436096     -3.71298059      1.11663096
H      -1.83654092     -2.81352480      1.31318344
H      -2.17764724     -4.62154570     -0.30905500
H      -0.79265035     -4.09293473     -1.26011565
H      -3.40917025     -2.56780010     -0.84320212
H      -2.85343800     -3.32015877     -2.33630929
H      -2.49106803     -0.85817777     -2.34414083
H      -0.98743347     -1.76529902     -2.51076984
H       4.86408901     -2.47814916     -1.08285813
