23
Clc1ccc(Oc2cccc(Cl)c2Cl)c(Cl)c1
Cl      4.93171711      1.80301803      0.78356604
C       3.50380929      0.86036882      0.60302803
C       2.42227612      1.07667019      1.45714442
C       1.26099028      0.31507755      1.31401146
C       1.18280100     -0.65140340      0.30449819
O       0.06072478     -1.44110493      0.17246489
C      -1.13144152     -0.77375227     -0.02395301
C      -1.29337667      0.05625326     -1.14083745
C      -2.51088705      0.69697335     -1.36074184
C      -3.57009397      0.49853526     -0.47501094
C      -3.41863757     -0.34733355      0.63033547
Cl     -4.78412020     -0.54163656      1.67383663
C      -2.19838128     -0.99659645      0.85895816
Cl     -1.97566006     -2.04822689      2.21862491
C       2.28112543     -0.87654145     -0.53437412
Cl      2.22963712     -2.07455440     -1.77570898
C       3.44149048     -0.11457758     -0.39097750
H       2.48049165      1.82894948      2.24025706
H       0.43137517      0.47077811      1.99886564
H      -0.47939331      0.19586007     -1.84820604
H      -2.63797723      1.34382004     -2.22612219
H      -4.51810475      1.00117812     -0.65524900
H       4.29163520     -0.28175479     -1.04671033
