38
Cc1cc(S(=O)(=O)[O-])ccc1N/N=C1/C(=O)C=Cc2ccccc21.[Na+]
C       2.13910117     -2.28660572     -1.45610428
C       2.15023905     -1.01459446     -0.65551122
C       2.97666381      0.04186849     -1.07304381
C       2.99334369      1.24392244     -0.36143689
S       4.02529250      2.61240540     -0.95241932
O       3.32647402      3.79422289     -0.45272511
O       3.98858425      2.44329199     -2.40327737
O       5.30447037      2.31795182     -0.31448159
C       2.19195991      1.41672162      0.76486818
C       1.36701795      0.37160658      1.18485745
C       1.32615323     -0.84753138      0.48342304
N       0.45068851     -1.91710819      0.86894206
N      -0.43513053     -1.70531571      1.88642319
C      -1.54529049     -1.06783953      1.62851324
C      -2.39474082     -0.69228851      2.83815412
O      -2.55314216     -1.44231682      3.78852585
C      -3.00990486      0.65043588      2.79744835
C      -3.19501829      1.25501292      1.61784109
C      -2.85810784      0.59012751      0.35265838
C      -3.33429747      1.11938370     -0.85360791
C      -3.06183517      0.47643645     -2.06275327
C      -2.32247902     -0.70426457     -2.07572195
C      -1.83531174     -1.23614852     -0.88163759
C      -2.07444944     -0.57731560      0.32856426
Na      0.00000000      0.00000000      0.00000000
H       1.14602743     -2.45946456     -1.88227146
H       2.41973812     -3.13669299     -0.82617384
H       2.85240064     -2.24633959     -2.28631826
H       3.60801481     -0.05003917     -1.95451665
H       2.21484966      2.35897167      1.30563416
H       0.76393904      0.51928049      2.07467336
H       1.05694633     -2.72274298      1.04696945
H      -3.31362526      1.08370111      3.74076419
H      -3.65150685      2.23921816      1.57351415
H      -3.92062167      2.03520189     -0.86676024
H      -3.42429844      0.89894463     -2.99669646
H      -2.10929153     -1.20393515     -3.01740746
H      -1.26285293     -2.15816223     -0.90890980
