25
CCCCCC(N)C(=O)O
C       3.53815803      0.03992497      1.57638057
C       2.19417311     -0.42090387      1.03268609
C       1.72985341      0.46214700     -0.12616821
C       0.44020742     -0.02935656     -0.79220924
C      -0.78565392      0.04491542      0.12708290
C      -2.08079380     -0.36574382     -0.58420865
N      -3.13412350     -0.69325126      0.43135104
C      -2.64416159      0.75310740     -1.48927243
O      -2.00361385      1.44947699     -2.25847945
O      -3.99335339      0.85838998     -1.34159749
H       4.31131966     -0.00557087      0.80276074
H       3.47996055      1.06914378      1.94473296
H       3.85091853     -0.60110965      2.40657501
H       1.46231264     -0.39801085      1.84693379
H       2.27965072     -1.46116410      0.69825793
H       1.59287444      1.49244322      0.22425501
H       2.51718637      0.49154389     -0.88986316
H       0.57753648     -1.06104144     -1.13849853
H       0.27459749      0.58096509     -1.68601364
H      -0.88219386      1.06175298      0.52843010
H      -0.61905181     -0.62409720      0.97994765
H      -1.93520226     -1.25272634     -1.21035781
H      -2.86360784     -1.57339893      0.88112104
H      -3.07043976     -0.00181946      1.18779153
H      -4.23655326      0.18438362     -0.65722239
