32
Nc1c(S(=O)(=O)O)cc(S(=O)(=O)O)c2ccc(S(=O)(=O)O)cc12
N      -0.86592498     -2.59786706     -0.79616842
C      -0.93545039     -1.25593650     -0.32347316
C      -2.18058447     -0.60236759     -0.26350253
S      -3.64409852     -1.45281665     -0.80847125
O      -4.75837673     -0.53324930     -0.75666311
O      -3.66061931     -2.72621396     -0.11768625
O      -3.31734709     -1.76030584     -2.36197891
C      -2.29745596      0.71576015      0.16854827
C      -1.14390893      1.43357304      0.48924507
S      -1.34697640      3.11277102      1.04834877
O      -0.90794794      3.16970163      2.42396117
O      -0.80347734      3.98448041      0.03070586
O      -2.93400675      3.39808632      1.04543899
C       0.15101345      0.86620254      0.34899703
C       1.35195949      1.57930950      0.61662357
C       2.61287296      1.01187920      0.44055226
C       2.70098319     -0.28932336     -0.02190158
S       4.28890059     -1.04104876     -0.23889148
O       4.16091668     -2.44653626      0.08273297
O       4.81706062     -0.58809396     -1.50410476
O       5.20520443     -0.42491405      0.93701934
C       1.54603209     -1.03177318     -0.28252221
C       0.25066057     -0.48990010     -0.09447311
H      -1.63720173     -3.16890367     -0.41997322
H      -0.00249757     -3.07160531     -0.53628733
H      -2.48085147     -2.27673743     -2.41233590
H      -3.28010121      1.17898997      0.23596861
H      -3.07337365      4.31616536      0.72866577
H       1.33457140      2.61118201      0.96677212
H       3.50588600      1.59655185      0.65153754
H       5.66495259     -1.17174529      1.37617193
H       1.67918638     -2.04531476     -0.65285607
