18
Nc1nc(N)c2nccnc2n1
N       3.30642976     -0.72287305     -0.19689465
C       1.97752025     -0.37034784     -0.10195163
N       1.69020721      0.92575282     -0.03872958
C       0.39047311      1.24581302      0.05088409
N       0.11223161      2.62341479      0.05995130
C      -0.64409818      0.31515197      0.06032466
N      -1.96889525      0.64936040      0.16719921
C      -2.83886965     -0.37641540      0.15718241
C      -2.40970936     -1.67992217      0.05557616
N      -1.10043620     -2.00550559     -0.03723067
C      -0.20228147     -1.01166496     -0.03299483
N       1.08065735     -1.34852166     -0.11717533
H       3.84549313      0.03362477     -0.59419922
H       3.39757290     -1.63437587     -0.62468833
H      -0.61711384      2.84893429      0.72974526
H       0.97643694      3.13994523      0.18385259
H      -3.88946274     -0.12144359      0.23258325
H      -3.10615555     -2.51092717      0.04656531
