34
CCCCc1c(C)[nH]c(NCC)nc1=O
C      -5.03849769     -0.05544373      0.35568001
C      -4.20059473      1.17823940      0.05711481
C      -2.70300070      0.97244645      0.29710156
C      -2.06950646     -0.03822422     -0.66434930
C      -0.58015865     -0.14538848     -0.45768277
C       0.05911015     -1.06853038      0.28892066
C      -0.62348230     -2.12033248      1.11915494
N       1.43530268     -1.05413758      0.33550970
C       2.15239854     -0.06878492     -0.26665989
N       3.49101804     -0.17701479     -0.00720114
C       4.43585333      0.72587623     -0.65104688
C       5.82823374      0.49584093     -0.08916338
N       1.63006721      0.86322190     -0.99070340
C       0.26752538      0.86760467     -1.19252460
O      -0.27604663      1.67873945     -1.93736112
H      -4.85845183     -0.41631939      1.37322914
H      -4.82114508     -0.86779114     -0.34376175
H      -6.10307684      0.18307600      0.26434245
H      -4.37313274      1.49583592     -0.97775143
H      -4.54537860      1.99616272      0.70106156
H      -2.20520235      1.94423898      0.18713645
H      -2.54039717      0.65445393      1.33469499
H      -2.53669454     -1.02111435     -0.54340716
H      -2.28584387      0.24590502     -1.70175193
H      -0.46800280     -3.10893483      0.67502502
H      -0.20780746     -2.13129635      2.13302500
H      -1.69919125     -1.95878348      1.22393931
H       1.87569943     -1.56355532      1.08992755
H       3.81768791     -1.13563239      0.00742467
H       4.44143363      0.55018087     -1.73250946
H       4.14589101      1.76758371     -0.47318038
H       5.84822722      0.66821575      0.99217793
H       6.54617683      1.17540866     -0.55850931
H       6.16098658     -0.53174674     -0.27022744
