25
O=C(CCCl)NCc1ccccc1
O      -2.53369030     -1.52019443     -0.61817299
C      -2.12057937     -0.40664404     -0.31590941
C      -3.01052744      0.80699730     -0.18508497
C      -4.45301672      0.45081974     -0.49391371
Cl     -5.48797197      1.89166583     -0.33165635
N      -0.79675000     -0.13473066     -0.06399458
C       0.19296721     -1.18625348     -0.07721971
C       1.57371580     -0.61910918      0.10846912
C       2.15169277     -0.55079562      1.38393522
C       3.42093215      0.00391367      1.55620153
C       4.12027546      0.50185982      0.45826897
C       3.55115332      0.44841632     -0.81272494
C       2.28231187     -0.10589944     -0.98731348
H      -2.92200705      1.19105383      0.83800525
H      -2.64973694      1.57678037     -0.87740350
H      -4.56320253      0.07580456     -1.51634109
H      -4.83412390     -0.31072411      0.19379170
H      -0.52748912      0.76881704      0.30443112
H      -0.04906170     -1.89776223      0.72117188
H       0.12186123     -1.73477254     -1.02403926
H       1.61686944     -0.93193583      2.25138009
H       3.86488940      0.04768381      2.54753371
H       5.10911187      0.93253847      0.59326765
H       4.09566985      0.83910873     -1.66860514
H       1.84670666     -0.13663792     -1.98407712
