19
Nc1nc(=O)c2[nH]c(=O)c(=O)[nH]c2[nH]1
N       3.42822415     -0.18189673     -0.33013629
C       2.15062479      0.23108798     -0.15096107
N       1.85955005      1.48483378     -0.05932352
C       0.53687427      1.83831378      0.11514560
O       0.16380980      2.99796840      0.27742423
C      -0.50205185      0.74783971      0.08728343
N      -1.83084602      1.08465843      0.17002102
C      -2.84850864      0.15939345      0.14349400
O      -4.02788579      0.46665655      0.21706138
C      -2.39115143     -1.32062782      0.01202891
O      -3.18615695     -2.24810892     -0.02138937
N      -1.02509937     -1.52763928     -0.06313942
C      -0.08755868     -0.52786963     -0.02121020
N       1.25482322     -0.78655654     -0.08959538
H       3.72459436     -0.90956768      0.31019314
H       4.06742469      0.60867522     -0.26935443
H      -2.07839322      2.06665103      0.25436205
H      -0.74328550     -2.49545010     -0.13312196
H       1.53501213     -1.68836163     -0.44878211
