89
CCCCCCCCCCCCCCCCCCCCCC[N+](C)(C)C.COS(=O)(=O)[O-]
C       9.87809381     -1.48472490     -2.76335611
C       8.97653969     -1.13584794     -1.58894314
C       9.78847239     -0.89189173     -0.31622758
C       8.91855073     -0.65547203      0.92233184
C       8.09904690      0.63537512      0.84901109
C       7.37928127      0.96914296      2.16014279
C       6.37988182     -0.08210610      2.65468079
C       5.27843860     -0.46933210      1.66354295
C       4.37563931      0.70173317      1.26999601
C       3.25268638      0.24328176      0.33543036
C       2.32346957      1.40371769     -0.02750321
C       1.27979411      1.04392957     -1.09040764
C       0.27970785     -0.01898049     -0.62887009
C      -0.76183762     -0.37417405     -1.69575330
C      -1.69425590      0.76419258     -2.12302155
C      -2.50241855      1.41649135     -0.99673182
C      -3.38418224      0.46570505     -0.18026375
C      -4.41670728     -0.33094558     -0.98445494
C      -5.42507630      0.50782485     -1.77589473
C      -6.27071754      1.48128791     -0.94760786
C      -7.06779551      0.85721953      0.20587797
C      -8.06819512     -0.19678143     -0.27265741
N      -8.92626151     -0.79564766      0.85941704
C      -9.86337129     -1.83345185      0.23119164
C      -8.06453641     -1.50223432      1.89947016
C      -9.78231958      0.26636414      1.53892861
C      -1.24783045      0.22519499      0.15405402
O      -0.00045377      0.81813694     -0.12902276
S       1.29893834     -0.16805778     -0.17083245
O       0.98480717     -1.10841247     -1.24302989
O       1.32882897     -0.75860573      1.16453066
O       2.40370317      0.73965839     -0.46054942
H      10.44852065     -2.39730601     -2.56306513
H      10.58531294     -0.67490792     -2.96872559
H       9.27948764     -1.64991129     -3.66453720
H       8.26512044     -1.95369888     -1.42693977
H       8.39561760     -0.24408108     -1.84694932
H      10.46107555     -0.03814779     -0.46285799
H      10.42509597     -1.76466133     -0.12432501
H       9.57606611     -0.61232052      1.79931248
H       8.25710897     -1.51759292      1.06379973
H       8.76791260      1.47069795      0.60686000
H       7.36913244      0.57842674      0.03486425
H       8.12958587      1.12537770      2.94561115
H       6.86637996      1.93100161      2.04184131
H       6.92325906     -0.98977180      2.94337371
H       5.91340035      0.29262068      3.57462583
H       5.71857974     -0.91932628      0.76635660
H       4.66462343     -1.25116619      2.12866619
H       3.94343219      1.15138196      2.17201885
H       4.96302002      1.47851912      0.76785064
H       3.68798221     -0.18101293     -0.57731617
H       2.68182995     -0.55282551      0.82605644
H       1.81780922      1.76765667      0.87524251
H       2.92400585      2.23822237     -0.41055134
H       1.78778582      0.70281215     -2.00064323
H       0.74417031      1.96335928     -1.35202322
H       0.81675900     -0.94117922     -0.37958305
H      -0.21553823      0.30885714      0.29173423
H      -1.36163958     -1.21517106     -1.32832487
H      -0.24135684     -0.74566353     -2.58766728
H      -1.11007666      1.54333375     -2.62677472
H      -2.38184853      0.37887412     -2.88544106
H      -3.12616266      2.20676612     -1.43126255
H      -1.81802634      1.92953176     -0.31045482
H      -2.74755329     -0.24336511      0.36208655
H      -3.89632478      1.04878120      0.59422606
H      -3.89839180     -0.99832182     -1.68311759
H      -4.95581852     -0.99289192     -0.29630555
H      -4.89739222      1.07910230     -2.54887441
H      -6.08897932     -0.17363423     -2.32124757
H      -6.96908313      1.99045493     -1.62388705
H      -5.62358716      2.26620777     -0.53840006
H      -6.37160734      0.43259773      0.93512292
H      -7.59353897      1.67326859      0.71302491
H      -8.76335215      0.23736601     -1.00119998
H      -7.55233390     -1.04058551     -0.74362560
H     -10.49162689     -1.32850352     -0.50845912
H      -9.25296809     -2.60656622     -0.24479625
H     -10.48109419     -2.26941117      1.02212167
H      -8.72549674     -2.02497587      2.59769761
H      -7.47628731     -0.75681811      2.44004855
H      -7.41285294     -2.21368229      1.38404683
H     -10.33948489      0.80715087      0.76870016
H     -10.46989803     -0.23362230      2.22814176
H      -9.13268096      0.94407830      2.09827326
H      -1.25191847     -0.21714505      1.15439379
H      -1.50060637     -0.53403513     -0.59160325
H      -2.01546859      1.00326583      0.12205929
