8
CS(=O)(=O)F
C      -0.92528838     -0.03481724      0.00829393
S       0.83745953      0.12635850      0.04912475
O       1.28185590     -0.02680276      1.41913448
O       1.21353276      1.27111095     -0.75460651
F       1.40341064     -1.14305788     -0.72661647
H      -1.36145990      0.81827988      0.53137692
H      -1.24897119     -0.04551517     -1.03379442
H      -1.20053936     -0.96555629      0.50708733
