24
NS(=O)(=O)c1cc2c(s1)C(O)CCS2=O
N       4.06247529      1.62606211     -0.05062862
S       3.66344119     -0.00093449      0.08727046
O       3.99884127     -0.39198688      1.43522562
O       4.22577098     -0.64378486     -1.07715477
C       1.90837808     -0.16309435     -0.07154891
C       1.12128133     -0.94883338     -0.89185466
C      -0.25912010     -0.72758964     -0.65992293
C      -0.50414575      0.18929169      0.33456314
S       0.95952807      0.81391384      0.96781520
C      -1.82597444      0.64169664      0.86007625
O      -2.10051302      1.90048443      0.25099912
C      -2.94728147     -0.33348452      0.50180615
C      -2.98711297     -0.63102214     -0.99299955
S      -1.55354828     -1.60988941     -1.54852763
O      -1.63972244     -2.95501311     -0.88959783
H       4.48989811      1.93459920      0.82428607
H       4.69036287      1.74438105     -0.84749675
H       1.53380969     -1.64602222     -1.61242411
H      -1.80243230      0.78287813      1.94658199
H      -1.39021591      2.50613482      0.52876180
H      -2.83254147     -1.26434017      1.07112256
H      -3.90883108      0.11022706      0.78767291
H      -3.02309980      0.28483994     -1.59171158
H      -3.87924785     -1.21851373     -1.23336163
