21
CC(=O)Nc1ccc([N+](=O)[O-])cc1
C      -3.91960940     -0.03081594      0.63020391
C      -2.59225436     -0.53093154      0.11642926
O      -2.52258352     -1.56298741     -0.54061713
N      -1.54814502      0.31267352      0.45263956
C      -0.18333147      0.15691260      0.13526870
C       0.69316265      1.15826886      0.57874826
C       2.06407192      1.08341986      0.30877006
C       2.56539352     -0.00535706     -0.41264069
N       4.00247300     -0.09116551     -0.69986413
O       4.72755891      0.82414483     -0.28384077
O       4.40656063     -1.07189015     -1.34021795
C       1.70373294     -1.01149828     -0.86047627
C       0.33329462     -0.92509932     -0.58380458
H      -3.81036193      0.42410510      1.61891700
H      -4.32544340      0.70365778     -0.07029451
H      -4.61432448     -0.87102483      0.71921583
H      -1.79052607      1.14221757      0.98012743
H       0.32292161      2.01265700      1.14103163
H       2.71930232      1.87557644      0.66544892
H       2.07309007     -1.86700211     -1.42288028
H      -0.30498254     -1.72586140     -0.94689362
