13
Oc1c(F)c(F)c(F)c(F)c1F
O       2.34502742     -0.93134660      0.06123982
C       1.06217500     -0.45964321      0.02627957
C       0.81113617      0.90900949      0.06884181
F       1.84351962      1.76153598      0.14468274
C      -0.49380663      1.38536736      0.03312717
F      -0.72703058      2.70431639      0.07448109
C      -1.55427575      0.49119541     -0.04547322
F      -2.81370266      0.94852642     -0.08002556
C      -1.31018935     -0.87674625     -0.08828409
F      -2.33547256     -1.73675686     -0.16409277
C      -0.00339675     -1.35285920     -0.05250427
F       0.22340770     -2.67348291     -0.09422327
H       2.95260837     -0.16911601      0.11595097
