22
CC(C)C1C(=O)NC(=O)NC1=O
C      -2.14306330     -1.25448223      0.49580473
C      -1.31273149      0.03231833      0.45059998
C      -1.76719943      0.92370883     -0.70948350
C       0.21153681     -0.24535607      0.44640426
C       0.75236509     -0.86395270     -0.82695359
O       0.07949166     -1.48974509     -1.64021226
N       2.10204423     -0.74326026     -1.01371244
C       2.86061760      0.25994133     -0.49916437
O       3.93507293      0.57234686     -1.00134706
N       2.33588057      0.95562235      0.54323658
C       1.00630365      0.97817759      0.85918514
O       0.53873098      1.92764320      1.48202353
H      -1.82740066     -1.89329561      1.32721431
H      -3.20265516     -1.01863485      0.64473437
H      -2.06487364     -1.83303336     -0.42862717
H      -1.55210536      0.57361010      1.37634081
H      -2.82342020      1.19060098     -0.59285608
H      -1.19458097      1.85582090     -0.74290912
H      -1.66129541      0.42509973     -1.67748919
H       0.41188984     -0.98488616      1.23645283
H       2.45719947     -1.14793056     -1.86999910
H       2.85819281      1.77968668      0.81002390
