37
O=C1CCCCCCCCCCCN1
O      -1.74265411      3.24644689      1.19064987
C      -0.98280086      2.58013666      0.49263838
C      -1.37078997      1.25200312     -0.13075247
C      -2.63136059      0.64376493      0.47538061
C      -2.95267560     -0.76168386     -0.05728751
C      -1.84173724     -1.79239143      0.19631101
C      -0.94494052     -2.01706042     -1.03113386
C       0.39792417     -2.67415855     -0.68274803
C       1.41208405     -1.72397115     -0.02745526
C       2.04022108     -0.73938486     -1.02432767
C       2.90362493      0.34071994     -0.35498569
C       2.11323432      1.40501831      0.41691929
C       1.33545737      2.36145384     -0.49297892
N       0.27787424      3.04935338      0.22657442
H      -1.50827580      1.40398550     -1.20689750
H      -0.54246809      0.56178477      0.02294035
H      -2.52737337      0.59679551      1.56699323
H      -3.48693230      1.30130202      0.27762573
H      -3.86037322     -1.10260052      0.45660947
H      -3.20066426     -0.71208998     -1.12411443
H      -2.30835458     -2.75459406      0.44420173
H      -1.25972719     -1.50466951      1.07795359
H      -1.48293525     -2.67668945     -1.72421810
H      -0.77840465     -1.08490109     -1.57761378
H       0.21670550     -3.52141729     -0.01009545
H       0.83885815     -3.08991893     -1.59698962
H       0.94147349     -1.19595215      0.80556730
H       2.21806373     -2.32757616      0.40873857
H       1.27415202     -0.27144984     -1.64735428
H       2.67911406     -1.31092129     -1.70978066
H       3.60967932     -0.14325674      0.33084940
H       3.50705601      0.83758123     -1.12463553
H       1.44929085      0.92544182      1.14338650
H       2.81616919      2.00000893      1.01435859
H       0.88971923      1.84736744     -1.34759033
H       2.00886131      3.12864075     -0.89013522
H       0.49290456      3.92288222      0.69339142
