36
CCCCOC(=O)/C=C/C(=O)OCCCC
C      -6.52933167     -0.84433860      1.41079343
C      -6.31999775      0.13121900      0.26309504
C      -4.92310912      0.74903803      0.23721027
C      -3.81181793     -0.26156817     -0.02843352
O      -2.57382044      0.45815198     -0.12162206
C      -1.49640684     -0.32498306     -0.36855562
O      -1.49119564     -1.53607506     -0.51157303
C      -0.30726357      0.53914894     -0.43783385
C       0.89017469     -0.01227476     -0.67432764
C       2.07982948      0.85168073     -0.74269848
O       2.07262234      2.06258623     -0.60001066
O       3.15587082      0.06503328     -0.98321223
C       4.41533181      0.74652171     -1.07694601
C       5.03674991      0.95786874      0.30310565
C       5.18461604     -0.31946034      1.13492632
C       6.11237324     -1.34714880      0.50610145
H      -5.89719904     -1.73072317      1.30410097
H      -6.30618107     -0.37290099      2.37308698
H      -7.57080239     -1.18111970      1.43203413
H      -7.05607977      0.93892054      0.35336603
H      -6.52124664     -0.37583974     -0.68769943
H      -4.72315928      1.27266092      1.18051890
H      -4.89060129      1.52338645     -0.53989982
H      -3.74372798     -0.98429422      0.79185043
H      -3.99907594     -0.78878031     -0.97115867
H      -0.44505187      1.60448629     -0.29285832
H       1.02787783     -1.07769801     -0.81881359
H       4.30258536      1.70295153     -1.60198343
H       5.06942754      0.12960872     -1.70159940
H       4.40851639      1.65221773      0.87396941
H       6.01531789      1.43804148      0.18599431
H       4.20283274     -0.77385828      1.31040732
H       5.58296540     -0.04626168      2.11949488
H       6.25572142     -2.19096944      1.18869190
H       5.69897624     -1.74261452     -0.42632757
H       7.09427912     -0.91261343      0.29386432
