42
CCOc1ccc(C(=O)OCCN(CC)CC)cc1
C       7.42191260      0.27541688     -0.05097799
C       6.69916713     -0.71152435      0.84915308
O       5.65250279     -1.37206569      0.13928516
C       4.40489118     -0.81654761      0.13195369
C       4.04911514      0.42914285      0.64672455
C       2.72339607      0.87340311      0.56270911
C       1.74043266      0.07750853     -0.03959783
C       0.34906884      0.60179013     -0.09935691
O       0.01975084      1.68982793      0.34549912
O      -0.47399831     -0.29187103     -0.70193602
C      -1.85112584      0.11361402     -0.81441722
C      -2.61354219     -0.21473324      0.48123818
N      -4.04748330      0.13576192      0.53074656
C      -4.85857436     -0.51387629     -0.51045592
C      -4.79082830     -2.03839826     -0.47966920
C      -4.22423451      1.59937019      0.53768862
C      -5.59702881      2.02850630      1.04632111
C       2.09908357     -1.17001477     -0.56067587
C       3.42440002     -1.60783744     -0.47409807
H       7.79285147     -0.22747426     -0.95029343
H       6.75431753      1.07394923     -0.38778824
H       8.26875031      0.72766949      0.47306292
H       7.40989118     -1.49093085      1.14697961
H       6.35151626     -0.25203046      1.78090204
H       4.77394552      1.08776214      1.11289614
H       2.46284930      1.84914105      0.96992758
H      -2.26604282     -0.44943447     -1.65630237
H      -1.91574406      1.17575820     -1.07667990
H      -2.49050388     -1.28341382      0.69842505
H      -2.10553199      0.26343562      1.32939422
H      -4.58434771     -0.15642732     -1.51017629
H      -5.91283467     -0.25461601     -0.36472063
H      -5.02116485     -2.42396814      0.51902564
H      -5.52446484     -2.45704801     -1.17681355
H      -3.80693213     -2.41072226     -0.78014750
H      -4.05029520      2.02710344     -0.45709310
H      -3.48723481      2.05299516      1.21272571
H      -5.62325937      3.11628858      1.17107462
H      -6.39615156      1.76174204      0.34884593
H      -5.81723570      1.57550431      2.01868572
H       1.36438390     -1.81384120     -1.03701164
H       3.69633291     -2.57891568     -0.88254337
