28
CN(C)C(=O)COC(=O)c1ccccc1
C      -4.02697278     -0.38245688      1.42339996
N      -3.30970428      0.24056936      0.32292081
C      -3.98477200      0.23882714     -0.96469352
C      -1.93688332      0.44774111      0.47240568
O      -1.36344227      0.27722556      1.55144140
C      -1.16248156      0.93878767     -0.76090878
O       0.25220804      0.93637540     -0.56034188
C       0.81939604     -0.29225467     -0.66036215
O       0.24706621     -1.31389498     -1.00845748
C       2.26728783     -0.23228308     -0.32394490
C       2.86910397      0.91908488      0.20198042
C       4.23391296      0.92294806      0.50073162
C       5.00196777     -0.21974382      0.27848438
C       4.40910319     -1.37032179     -0.23975680
C       3.04526769     -1.37830783     -0.53915021
H      -4.09215819     -1.45799527      1.23337205
H      -5.03317475      0.04241150      1.48429181
H      -3.52349798     -0.22146653      2.38039663
H      -5.04567878      0.46500284     -0.82319742
H      -3.87450255     -0.75133903     -1.41608493
H      -3.56268125      0.99113696     -1.63428775
H      -1.45664094      1.97711108     -0.94674612
H      -1.41550467      0.34950649     -1.64868519
H       2.28594767      1.81653347      0.39274278
H       4.69639376      1.81702449      0.91175264
H       6.06339315     -0.21498205      0.51439785
H       5.00678252     -2.26274536     -0.40794338
H       2.59026452     -2.28249472     -0.93905334
