22
N#CCCCCCCC#N
N       4.02606430      1.05281699      1.88227793
C       3.68367868      0.45222080      0.95053613
C       3.24544748     -0.30893402     -0.22706917
C       1.84609648     -0.89971857     -0.04389948
C       0.74536201      0.16694508     -0.03647531
C      -0.63997506     -0.46618878      0.11289612
C      -1.74130154      0.59588218      0.10855367
C      -3.12455797     -0.03446814      0.26939413
C      -4.17797772      0.98884351      0.24349381
N      -5.01159078      1.79550390      0.21975474
H       3.95323245     -1.12762470     -0.40238360
H       3.27120813      0.32888965     -1.11782235
H       1.80294952     -1.48193563      0.88530704
H       1.65557913     -1.59889191     -0.86768929
H       0.91024076      0.87228733      0.78639321
H       0.78725613      0.74221213     -0.96937267
H      -0.81078635     -1.17479128     -0.70664970
H      -0.68325803     -1.03672149      1.04862895
H      -1.69905145      1.16456639     -0.82936143
H      -1.56484387      1.31344757      0.92020205
H      -3.29970117     -0.75769570     -0.53547279
H      -3.17407112     -0.58664533      1.21495826
