12
C/C(I)=C/C(=O)O
C      -2.07006532     -0.22686995      0.13728157
C      -0.70158539      0.38764176      0.29179433
I      -0.69041980      2.22729993      1.26171996
C       0.38647047     -0.24791015     -0.17888471
C       1.79471650      0.18235914     -0.12658837
O       2.28144192      1.18832931      0.34410704
O       2.56256449     -0.75289641     -0.71574451
H      -2.53018300     -0.39819776      1.11645127
H      -2.72448546      0.42792409     -0.44822151
H      -2.03223406     -1.19322602     -0.37763673
H       0.25572951     -1.20890047     -0.67003792
H       3.46805015     -0.38555347     -0.63424042
