21
CN(C)c1nc2ncncc2[nH]1
C      -2.53801461     -0.90362920     -0.83455369
N      -1.88947931      0.04053188      0.07185219
C      -2.50611514      0.11904063      1.39995333
C      -0.52974034      0.12055782      0.07120071
N       0.27776228      0.23806070      1.10319362
C       1.53834694      0.31085111      0.57985181
N       2.67728015      0.42454791      1.28824895
C       3.76548051      0.48319962      0.50796152
N       3.82801479      0.44212381     -0.84221438
C       2.67165543      0.32939147     -1.52758321
C       1.50641562      0.25845148     -0.80043079
N       0.18163650      0.14874872     -1.10586674
H      -2.27051576     -0.70910055     -1.87844182
H      -3.62825775     -0.81495424     -0.76986784
H      -2.26433825     -1.93501567     -0.58532690
H      -2.14350750      0.99223739      1.95484790
H      -3.59257482      0.22940589      1.31106580
H      -2.29984656     -0.78561956      1.98329568
H       4.71653411      0.57563230      1.02385941
H       2.72586037      0.30061958     -2.60760924
H      -0.22659666      0.13491891     -2.02599630
