32
CC(C)Cc1ncc2c(N)c(C#N)c(N)nc2n1
C       4.54691445      1.19509059     -0.72495622
C       3.20103206      0.47402748     -0.62104708
C       3.40906225     -1.03348589     -0.78847916
C       2.52600068      0.81849107      0.71889284
C       1.10404350      0.33030661      0.80272042
N       0.85904519     -0.76451552      1.53343222
C      -0.42178377     -1.17000462      1.56852416
C      -1.46921394     -0.52801833      0.91506410
C      -2.83686681     -0.91757635      0.95211958
N      -3.23150294     -2.09777919      1.62665107
C      -3.73280949     -0.21619209      0.13051049
C      -5.11099422     -0.59045444      0.04326147
N      -6.22095249     -0.92824854     -0.00839854
C      -3.25853895      0.87706900     -0.58733528
N      -4.08217963      1.68492869     -1.37032650
N      -1.97512172      1.27381658     -0.54310337
C      -1.08574152      0.58720981      0.17037846
N       0.17091171      1.01055535      0.12108412
H       5.22834529      0.88250278      0.07367399
H       5.02943320      0.98271155     -1.68491408
H       4.41381007      2.27970686     -0.65251789
H       2.56813743      0.82396094     -1.44691294
H       4.01011269     -1.44485942      0.02959303
H       3.92625153     -1.25086091     -1.72929861
H       2.45379030     -1.56725513     -0.81098998
H       3.10485645      0.40409971      1.55391284
H       2.51299115      1.90678212      0.85952766
H      -0.58010632     -2.06765143      2.15804668
H      -4.23242753     -2.19600586      1.79775844
H      -2.70527043     -2.32029717      2.46694028
H      -4.62712983      1.17144451     -2.05563763
H      -3.49409836      2.39050126     -1.81207135
