33
O=C1CCOc2cc(OCc3ccccc3)ccc21
O       4.98964076      1.41204216      1.95239776
C       4.50643392      0.66321655      1.11001893
C       5.33992682     -0.29391946      0.30532776
C       4.67104170     -0.49630905     -1.03820475
O       3.35135858     -1.03215639     -0.89441307
C       2.55121807     -0.25272167     -0.09812802
C       1.17241279     -0.37908389     -0.28651289
C       0.29082741      0.38407808      0.48205120
O      -1.07348210      0.36782274      0.39639455
C      -1.65758029     -0.52111339     -0.55281611
C      -3.15688219     -0.37886835     -0.46715847
C      -3.82469512      0.58726548     -1.23310958
C      -5.21058511      0.72770206     -1.14335329
C      -5.94060336     -0.08882974     -0.28159955
C      -5.28564702     -1.04225508      0.49578006
C      -3.89979685     -1.18433669      0.40758777
C       0.80001187      1.26440044      1.44379405
C       2.17617128      1.37874852      1.64978406
C       3.04894859      0.61054213      0.87928134
H       6.34068012      0.12615803      0.16624212
H       5.41134409     -1.23347843      0.86318135
H       4.61993495      0.43720143     -1.61427747
H       5.24881957     -1.21172581     -1.63295051
H       0.82301086     -1.07244290     -1.04395120
H      -1.37792021     -1.55947282     -0.33400629
H      -1.32799817     -0.27266774     -1.56963471
H      -3.26608467      1.24063448     -1.89962968
H      -5.71989000      1.47882430     -1.74138710
H      -7.01913084      0.02355353     -0.20960893
H      -5.85353305     -1.67154351      1.17604029
H      -3.40062024     -1.92336146      1.03038179
H       0.11489901      1.85928651      2.04473961
H       2.55776884      2.05280996      2.41332646
