12
O=c1cc[nH]c(=S)[nH]1
O      -1.64486057     -2.06337130     -0.26481741
C      -0.89106676     -1.10542759     -0.14231011
C      -1.41714079      0.27120658     -0.03770313
C      -0.55550272      1.28287981      0.09458619
N       0.79432017      1.05957272      0.13375359
C       1.34637575     -0.18836102      0.04226222
S       2.99071572     -0.42046044      0.09368648
N       0.47228197     -1.22946808     -0.09331656
H      -2.48992383      0.40174713     -0.07319432
H      -0.88254647      2.31453410      0.17596275
H       1.43370089      1.84260700      0.23492295
H       0.84364664     -2.16545891     -0.16383265
