19
CCCCOC(N)=O
C      -3.18118298     -0.55692589     -0.14287213
C      -1.98744423      0.37962475     -0.04747085
C      -0.67258673     -0.39341203     -0.00010209
C       0.52776894      0.54211685      0.09562826
O       1.71462861     -0.26084337      0.13502158
C       2.85829357      0.45350616      0.22057122
N       3.91934954     -0.38173204      0.25203529
O       2.95450509      1.66879806      0.26471154
H      -4.11213422      0.01768681     -0.17553941
H      -3.22508967     -1.22595779      0.72247344
H      -3.12797918     -1.16931750     -1.04868661
H      -1.99107026      1.05582936     -0.91025442
H      -2.08763979      0.99950164      0.85106952
H      -0.66621339     -1.08042810      0.85544909
H      -0.57041314     -1.02454988     -0.89185606
H       0.46317555      1.14510473      1.00907894
H       0.56121827      1.20229206     -0.77913385
H       3.77525975     -1.37821934      0.21226262
H       4.84755426      0.00692552      0.31535158
