26
O=c1[nH]c(Nc2ccccc2)nc2[nH]cnc12
O       2.09468087     -2.73391929      0.61264672
C       2.01893848     -1.51398141      0.50923340
N       0.81311618     -0.83650959      0.61774893
C       0.65195736      0.54171631      0.51821138
N      -0.60545836      1.05715867      0.67881982
C      -1.80780865      0.55794317      0.13461614
C      -1.85619137     -0.37855017     -0.90556286
C      -3.08090123     -0.84801062     -1.38990594
C      -4.27407668     -0.38649049     -0.84027624
C      -4.24426843      0.54815223      0.19060490
C      -3.01950585      1.01688193      0.67215602
N       1.65745327      1.36288867      0.32505898
C       2.84583464      0.73194163      0.20047068
N       4.04707438      1.33322445     -0.02571372
C       4.99027284      0.33925340     -0.08602227
N       4.46219839     -0.85572123      0.08859698
C       3.12341020     -0.61278312      0.26833272
H       0.00879333     -1.40626390      0.82606373
H      -0.60078936      2.07319525      0.68387867
H      -0.94753666     -0.73741666     -1.38219499
H      -3.10126507     -1.57021733     -2.20269980
H      -5.22562106     -0.75250121     -1.21771333
H      -5.17326052      0.91076934      0.62329857
H      -3.01744431      1.73764145      1.48699251
H       4.20246913      2.32503180     -0.12833184
H       6.03792849      0.54833922     -0.25830916
