38
CC(C)(C)[C@H](O)[C@H](Oc1ccc(Cl)cc1)n1cncn1
C      -3.62245716     -1.53532095     -0.03273801
C      -2.59898441     -0.39505256     -0.25507046
C      -2.47897728     -0.15505449     -1.76975625
C      -3.17984118      0.86525656      0.41134752
C      -1.23200703     -0.84089519      0.35434503
O      -1.37051471     -1.02179359      1.77680366
C       0.04030422     -0.00873813      0.02404810
O       1.14138227     -0.69752185      0.66494686
C       2.37132419     -0.67627889      0.07068165
C       3.27145025     -1.62197665      0.57375193
C       4.56996526     -1.71231225      0.06652566
C       4.97465873     -0.84609678     -0.94410620
Cl      6.57117646     -0.95015405     -1.57414594
C       4.09179407      0.10835444     -1.44338794
C       2.79054825      0.19626460     -0.93415318
N       0.01319823      1.36272659      0.49558259
C       0.02561435      1.81692953      1.77918718
N       0.05643036      3.12988459      1.78285184
C       0.07568549      3.44180226      0.45501292
N       0.05810025      2.39700638     -0.37756836
H      -4.59459722     -1.28903101     -0.47548492
H      -3.78656745     -1.72669739      1.03345582
H      -3.28019430     -2.46920577     -0.49291639
H      -2.04911605     -1.02728515     -2.27464726
H      -1.84873162      0.71103606     -1.99484890
H      -3.46053528      0.03713096     -2.21835486
H      -2.60648248      1.76174203      0.16748450
H      -4.20416467      1.05178520      0.06654619
H      -3.21746933      0.76824421      1.50134962
H      -1.02701579     -1.85141953     -0.02849919
H      -0.55733653     -1.46432654      2.08675253
H       0.17073647     -0.00345511     -1.06416347
H       2.96253000     -2.29824301      1.36761043
H       5.25603803     -2.45442047      0.46566677
H       4.40973166      0.79539269     -2.22392608
H       2.14900975      0.97338836     -1.33838733
H       0.01069745      1.16946570      2.64483303
H       0.10461676      4.45886922      0.08512092
