53
CC12CCC(=O)C=C1C=CC1C2CCC2(C)C1CCC21CCC(=O)O1
C      -2.88689998      1.79032524     -0.51978905
C      -2.64773693      0.40126226      0.11792572
C      -3.32917574      0.35812343      1.51402735
C      -4.85183752      0.38310002      1.44895080
C      -5.38604491     -0.67228383      0.51545902
O      -6.53100105     -1.10876260      0.61441718
C      -4.52281039     -1.15550320     -0.58548039
C      -3.28386495     -0.67244024     -0.78003491
C      -2.48761759     -1.19152391     -1.88068138
C      -1.19151311     -0.89756029     -2.04914242
C      -0.40660893     -0.03463976     -1.09659604
C      -1.11631357      0.08647285      0.27659959
C      -0.33247713      1.07001337      1.16152626
C       1.10880087      0.59316900      1.36689368
C       1.89282352      0.34345650      0.04501672
C       2.25946831      1.71336239     -0.55609557
C       1.05937977     -0.49910479     -0.95571220
C       1.25434764     -1.96177149     -0.50943553
C       2.47821136     -1.98166680      0.40631517
C       3.12481564     -0.59204387      0.28701177
C       4.22100345     -0.59109270     -0.77648028
C       5.23847909      0.39215755     -0.24724929
C       4.99548999      0.34701243      1.22835070
O       5.73581965      0.81313794      2.07865299
O       3.80902790     -0.26665163      1.49979488
H      -3.95128973      1.97465657     -0.70450427
H      -2.52894877      2.59461834      0.13148030
H      -2.38581512      1.89810530     -1.48681708
H      -3.00125798      1.20099858      2.13341673
H      -3.02167696     -0.55575590      2.04149052
H      -5.22216992      1.35829898      1.11754040
H      -5.25311144      0.19165351      2.45051084
H      -4.96849240     -1.91605258     -1.21734433
H      -2.97518494     -1.84271245     -2.60445826
H      -0.67517612     -1.28890913     -2.92300191
H      -0.36657906      0.96108880     -1.55838447
H      -1.05848199     -0.89246839      0.77641704
H      -0.79758242      1.15567672      2.14888536
H      -0.33600401      2.07430921      0.72560628
H       1.64154625      1.32871639      1.98334311
H       1.06597010     -0.32013526      1.97178025
H       1.37421974      2.33107600     -0.73607502
H       2.76686373      1.61769696     -1.52080067
H       2.91381668      2.27632485      0.11779021
H       1.52183787     -0.41301000     -1.95074516
H       1.42153249     -2.59932457     -1.38551026
H       0.38914480     -2.37233332      0.01955825
H       2.17158437     -2.18244697      1.44024252
H       3.15902215     -2.79843469      0.14264819
H       4.70653780     -1.57409265     -0.83345455
H       3.88119272     -0.35445147     -1.78803484
H       6.25727982      0.07373485     -0.48181214
H       5.06745696      1.40662442     -0.61401181
