50
Nc1ccc(-c2ccc(N)c3c2C(=O)c2ccccc2C3=O)c2c1C(=O)c1ccccc1C2=O
N      -4.00755185     -2.83526144     -2.25597164
C      -2.96581447     -1.89226412     -2.18566344
C      -1.90300362     -2.02996704     -3.07933695
C      -0.76782297     -1.22927814     -2.96717655
C      -0.63988147     -0.27845461     -1.93724848
C       0.61115131      0.50985463     -1.88819404
C       0.78961137      1.48738915     -2.88532889
C       1.93035862      2.28393662     -2.92418212
C       2.91204588      2.17042412     -1.93964882
N       4.10271556      2.89984885     -2.12272004
C       2.76641586      1.18038214     -0.93885627
C       1.63273671      0.34359137     -0.91573647
C       1.53928008     -0.71608032      0.13159032
O       0.60725677     -1.51194720      0.17639305
C       2.59874297     -0.84827700      1.14703845
C       2.50574409     -1.85191312      2.12382524
C       3.50216462     -1.98832328      3.09171324
C       4.59447694     -1.12439461      3.08962785
C       4.68868455     -0.12586745      2.11943387
C       3.68792558      0.01007509      1.14548453
C       3.79515796      1.06893081      0.13139980
O       4.72972769      1.86333068      0.20755099
C      -1.70319693     -0.14949431     -1.00824429
C      -2.84283688     -0.96919175     -1.12239775
C      -3.94534438     -0.83757879     -0.13311449
O      -5.05032805     -1.33545825     -0.33335776
C      -3.71729009     -0.07955293      1.10600294
C      -4.64562598     -0.15202145      2.15329975
C      -4.43977227      0.58305457      3.32170170
C      -3.31378019      1.39586447      3.44317054
C      -2.39380540      1.47354678      2.39613009
C      -2.59599558      0.72946061      1.22541205
C      -1.63526764      0.83110883      0.11320278
O      -0.80776335      1.73549114      0.14423191
H      -4.24807596     -3.14127413     -3.19195026
H      -4.83093084     -2.53995778     -1.71589595
H      -1.94067962     -2.78480230     -3.86160796
H       0.04318640     -1.37489676     -3.68000326
H       0.02919855      1.63182196     -3.65204517
H       2.04772238      2.99986217     -3.73448049
H       3.97471893      3.82565371     -2.51657887
H       4.67246245      2.91930599     -1.26657282
H       1.65585321     -2.53257269      2.13424550
H       3.42423677     -2.76833707      3.84570850
H       5.37297939     -1.22632227      3.84229145
H       5.54524532      0.54628820      2.12543090
H      -5.53010396     -0.77988858      2.06127247
H      -5.16023639      0.52422428      4.13442658
H      -3.15356640      1.97329653      4.35088622
H      -1.52112572      2.11663469      2.49484207
