30
CC(=O)CC(=O)OCCOC(=O)CC(C)=O
C       5.03159995      0.43726620      0.43076596
C       4.40069634      1.77187803      0.12633672
O       5.09452941      2.75384585     -0.14428238
C       2.90084385      1.87600364      0.19194468
C       2.18545148      1.02423542     -0.81042468
O       2.71176311      0.24325449     -1.58889890
O       0.84192264      1.22979546     -0.70847322
C       0.02315652      0.48808203     -1.63461484
C      -0.17916484     -0.95176491     -1.16100839
O      -0.82648626     -0.98841869      0.12687185
C      -2.17876172     -0.81492959      0.11282139
O      -2.84764017     -0.64811387     -0.89581641
C      -2.70836887     -0.88616389      1.51133943
C      -4.17465041     -0.56931013      1.62772918
C      -5.15589650     -1.51027929      0.97707724
O      -4.56196179      0.41884131      2.25416814
H       5.00470739     -0.20228729     -0.45337674
H       6.07249643      0.58876514      0.73096823
H       4.50565133     -0.04326664      1.25975843
H       2.58409874      1.59441109      1.20144556
H       2.62572286      2.92196148      0.01580642
H      -0.93304109      1.01775098     -1.68434986
H       0.46338886      0.51611743     -2.63803461
H       0.78281836     -1.45625111     -1.02967585
H      -0.75311859     -1.53191019     -1.89277873
H      -2.15850624     -0.16564913      2.12745071
H      -2.54017731     -1.89007368      1.91389736
H      -6.14354040     -1.37158440      1.42640333
H      -5.22046131     -1.30729508     -0.09353467
H      -4.84707178     -2.54491069      1.14661588
