47
CCCCCCCCCCCCCC(=O)OC
C      -6.00611719     -1.55644844      1.12735052
C      -5.21220762     -1.85798152     -0.13409894
C      -5.48871694     -0.87933583     -1.27772606
C      -5.16309326      0.58938134     -0.98662161
C      -3.72301083      0.87768860     -0.55216763
C      -2.68076383      0.47866694     -1.59897193
C      -1.27107945      0.88445500     -1.15980680
C      -0.22810723      0.48108271     -2.20443182
C       1.18624795      0.96404590     -1.87074605
C       1.77354331      0.30892719     -0.61870283
C       3.22581374      0.73881953     -0.39849476
C       3.81458657      0.08929999      0.85436119
C       5.26418619      0.51825840      1.07423502
C       5.85760266     -0.11137836      2.31282050
O       5.28016916     -0.88192760      3.06600632
O       7.14457270      0.31448546      2.46339431
C       7.80205801     -0.22209564      3.61207873
H      -5.83947221     -2.34114084      1.87231557
H      -5.70275946     -0.60535671      1.57470851
H      -7.07911772     -1.51343784      0.91545993
H      -4.14286525     -1.87853563      0.10213501
H      -5.47200546     -2.86749202     -0.47521853
H      -6.54927248     -0.94704927     -1.55186060
H      -4.93025372     -1.20771927     -2.16232410
H      -5.84267808      0.96490057     -0.21218078
H      -5.38394768      1.17488101     -1.88825773
H      -3.50816733      0.37513433      0.39776087
H      -3.63814294      1.95403424     -0.35590021
H      -2.91989878      0.95771980     -2.55599239
H      -2.70614861     -0.60472040     -1.76130996
H      -1.04547584      0.40760268     -0.19953281
H      -1.23335880      1.96902779     -1.00245061
H      -0.51265065      0.90454231     -3.17565176
H      -0.22568374     -0.60907511     -2.32426662
H       1.18395020      2.05438448     -1.75202275
H       1.83364420      0.74164844     -2.72807162
H       1.18221401      0.58362648      0.26177361
H       1.72477848     -0.78215851     -0.71691616
H       3.27496112      1.83044641     -0.30414960
H       3.82784959      0.46200579     -1.27247703
H       3.21219225      0.36153211      1.73001610
H       3.76273858     -1.00287916      0.76368767
H       5.31447278      1.60710586      1.18706267
H       5.87333845      0.21910101      0.21385736
H       7.87182358     -1.31191969      3.53904405
H       7.27909433      0.07366063      4.52701542
H       8.81515720      0.18856579      3.64526828
