15
O=C(O)c1ccccc1Cl
O       2.83565338     -1.02589864      0.16293627
C       2.08998602     -0.09053022     -0.04689509
O       2.57899501      1.12640223     -0.35681416
C       0.60938391     -0.08441787     -0.01069293
C      -0.05356331      1.07217678      0.43750704
C      -1.44712730      1.10725853      0.51408229
C      -2.19054154     -0.01051409      0.14558877
C      -1.54112178     -1.16173621     -0.30305122
C      -0.14288860     -1.20508428     -0.38344164
Cl      0.55723924     -2.66019576     -0.99737224
H       3.54993170      0.98799816     -0.36966990
H       0.51426310      1.95127608      0.73628688
H      -1.95030256      2.00626062      0.86306171
H      -3.27638453      0.01327124      0.20383967
H      -2.13352275     -2.02626659     -0.59536545
