28
N#CCN(CC#N)CCN(CC#N)CC#N
N      -2.56943860     -3.01190639      2.02134525
C      -2.78422414     -2.05973859      1.39240468
C      -3.04472238     -0.83079307      0.60715082
N      -1.94836375     -0.47966247     -0.33473962
C      -2.41990823      0.51009404     -1.33411942
C      -2.79126990      1.83995160     -0.80426544
N      -3.08243103      2.87252863     -0.36205272
C      -0.73131450     -0.05885075      0.39773019
C       0.51436466      0.16877525     -0.50127960
N       1.74156717      0.49579954      0.25712802
C       2.28521392     -0.66792367      1.01572212
C       2.72643786     -1.82007263      0.19763735
N       3.06746408     -2.69432147     -0.48549931
C       2.76289297      1.08708104     -0.64869206
C       3.94791553      1.63229586      0.05196409
N       4.88109011      2.03843985      0.61063040
H      -3.25167424      0.00143088      1.29136902
H      -3.96526288     -1.01158139      0.03731750
H      -3.28442490      0.08728020     -1.86225992
H      -1.65997429      0.62949541     -2.11442473
H      -0.48259684     -0.84870031      1.11275425
H      -0.92344282      0.84659579      0.98782966
H       0.28694904      1.01930670     -1.15493184
H       0.67036000     -0.69596038     -1.15798977
H       1.54086760     -1.00962809      1.74272403
H       3.12500961     -0.33199052      1.63594423
H       3.08065334      0.36463351     -1.41015024
H       2.30826259      1.92742142     -1.18924697
