20
CNC(=O)O/N=C(\C)SC
C      -3.85500391      0.31401045      0.72512190
N      -2.65480792     -0.23633333      0.15721667
C      -1.43717044      0.37331483      0.31861013
O      -1.28132953      1.46255880      0.85588994
O      -0.45071938     -0.42991645     -0.19924323
N       0.81137735      0.16910695     -0.02637426
C       1.75510989     -0.55617690     -0.53464099
C       1.54739469     -1.87750435     -1.22708387
S       3.42527026     -0.01500707     -0.44177128
C       3.22157655      1.57036020      0.40133809
H      -3.89288093      0.04958432      1.78515256
H      -4.71462951     -0.11645071      0.20646586
H      -3.86314296      1.40236969      0.62167485
H      -2.64117066     -1.19023421     -0.17292377
H       2.48560785     -2.31461265     -1.57927784
H       0.88742114     -1.73540493     -2.08820984
H       1.07757323     -2.58047364     -0.53253588
H       2.78125564      1.42928207      1.39226849
H       4.20307851      2.03587335      0.52636110
H       2.59519014      2.24565359     -0.18803862
