20
Cc1cc(C)cc(C(=O)Cl)c1
C       2.63371396     -1.03215950      0.24427954
C       1.27744588     -0.43779647      0.00088759
C       0.13234277     -1.24144128      0.04406743
C      -1.13959921     -0.69124249     -0.15852730
C      -2.36081383     -1.56144951     -0.08436015
C      -1.26532592      0.68941060     -0.37151032
C      -0.13108337      1.51297387     -0.40332470
C      -0.22849527      2.99344666     -0.62871780
O       0.82085679      3.63621704     -0.62938068
Cl     -1.79468687      3.73933132     -0.87795401
C       1.13610614      0.93934941     -0.21291726
H       2.86781653     -1.00434776      1.31288037
H       3.40562557     -0.48041553     -0.30246325
H       2.67257323     -2.07098812     -0.09999447
H       0.23245071     -2.30896644      0.23585761
H      -3.15218677     -1.17973361     -0.73797101
H      -2.73461682     -1.59390731      0.94359510
H      -2.13445289     -2.58172544     -0.41146683
H      -2.26170640      1.10254330     -0.50700051
H       2.02403576      1.57090125     -0.22787244
