17
Cc1ncnc2nccnc12
C      -2.31341794     -0.87974473      0.11346817
C      -1.26532422      0.17918385     -0.07883615
N      -1.71585881      1.42528307     -0.35917409
C      -0.77716063      2.35912793     -0.52830594
N       0.53981617      2.16566556     -0.44476291
C       0.95497872      0.93195447     -0.16820277
N       2.27581045      0.73522307     -0.08383840
C       2.71458295     -0.51210598      0.19638515
C       1.85430849     -1.56780322      0.39402849
N       0.51969119     -1.41124915      0.31779543
C       0.07785544     -0.15096619      0.03471155
H      -3.31719201     -0.45939420     -0.00843783
H      -2.24611762     -1.30428831      1.12009044
H      -2.19007376     -1.67691852     -0.62636963
H      -1.11475559      3.36513459     -0.75379175
H       3.79033273     -0.63334251      0.25678106
H       2.21252445     -2.56575975      0.61845919
