24
CC(C)C(O)C(C)C
C      -2.25256203      1.15732497     -0.78350048
C      -1.24660692      0.46529591      0.14620775
C      -1.89171649     -0.79363754      0.73368023
C       0.07809646      0.17518252     -0.60258894
O      -0.21242058     -0.68129098     -1.71100769
C       1.19630319     -0.46655405      0.25715798
C       1.51574768      0.35277526      1.50980218
C       2.48358741     -0.65451239     -0.55871817
H      -3.15468631      1.44273394     -0.23149549
H      -2.55823412      0.50563973     -1.60877660
H      -1.82273067      2.06965646     -1.21029858
H      -1.04479602      1.16170614      0.96845770
H      -2.11025715     -1.53500437     -0.04191840
H      -2.83464598     -0.54582553      1.23349481
H      -1.24436969     -1.26213714      1.48076636
H       0.44736914      1.12306083     -1.01609027
H       0.51744615     -0.60099781     -2.34758365
H       0.87943176     -1.47019182      0.56702681
H       2.36355592     -0.07909031      2.05286756
H       0.67023527      0.37083246      2.20362599
H       1.77154918      1.38602115      1.25207565
H       2.84039333      0.29983612     -0.96053698
H       3.27990239     -1.07822330      0.06301803
H       2.32940808     -1.34260025     -1.39566582
