39
O=C1OC(CN2CCOCC2)CN1/N=C/c1ccc([N+](=O)[O-])o1
O       0.58412276      2.24402775      1.11908893
C       0.16917983      1.55830646      0.19760870
O      -1.13698869      1.60389176     -0.22578339
C      -1.24715207      0.75289009     -1.37768227
C      -2.62636835      0.07592275     -1.46671639
N      -2.86672759     -1.06611988     -0.56226011
C      -4.12693408     -1.76847396     -0.91268098
C      -5.40373153     -1.01038770     -0.50676945
O      -5.40562518     -0.69828200      0.89055605
C      -4.24219687      0.05930757      1.24797132
C      -2.95456754     -0.69167123      0.86995133
C      -0.06142709     -0.18005995     -1.28873039
N       0.87368652      0.62307647     -0.56179363
N       2.11716215      0.11837862     -0.27966077
C       2.98609462      0.91503041      0.25911904
C       4.28995309      0.42116217      0.61017340
C       4.85640296     -0.84073740      0.53666827
C       6.18201692     -0.72925295      1.02780723
C       6.33294427      0.59452407      1.36437673
N       7.44038043      1.31709869      1.90590549
O       7.30184143      2.53156494      2.09718781
O       8.46287059      0.65751086      2.13778634
O       5.20125430      1.30804115      1.11949627
H      -1.13859474      1.41255531     -2.24938746
H      -3.39953833      0.84273527     -1.34320100
H      -2.71057555     -0.29770287     -2.49581647
H      -4.11713163     -2.73416362     -0.39044559
H      -4.15188032     -2.00442216     -1.98303692
H      -6.27960247     -1.63701539     -0.70373888
H      -5.52696664     -0.08614368     -1.08229832
H      -4.29347013      1.04650646      0.77569094
H      -4.27287522      0.21231039      2.33156882
H      -2.07569330     -0.13032900      1.19516076
H      -2.92627139     -1.62700232      1.44522299
H      -0.25672253     -1.08082098     -0.69868220
H       0.33519918     -0.46011825     -2.26861508
H       2.80280936      1.98638138      0.44561800
H       4.35875620     -1.73028275      0.17185910
H       6.92636664     -1.50823649      1.12310336
