44
CCn1cc(C(=O)O)c(=O)c2cc(F)c(N3CCNC(C)C3)c(F)c21
C       2.25908983      2.71314594      1.49404444
C       2.41003213      1.29815952      2.03420802
N       2.71307306      0.34316091      0.94952789
C       4.03393208      0.03355427      0.64571432
C       4.46151279     -0.80796003     -0.30463372
C       5.91131978     -1.02578999     -0.48666246
O       6.76431279     -0.46775524      0.18850566
O       6.22838274     -1.89959671     -1.46650847
C       3.42307952     -1.46900740     -1.11289928
O       3.74441179     -2.26891054     -1.99004918
C       2.00277756     -1.14066459     -0.84465909
C       1.02691091     -1.74748588     -1.63966227
C      -0.31552799     -1.46081615     -1.42714175
F      -1.20054764     -2.09204812     -2.21361645
C      -0.73837420     -0.57449954     -0.42540198
N      -2.08851970     -0.23851043     -0.18615938
C      -2.57490013     -0.59655125      1.16634778
C      -3.93133104      0.08707471      1.45354961
N      -4.96443564     -0.16200709      0.42674118
C      -4.44353027      0.17361194     -0.92193398
C      -4.37049458      1.69020526     -1.12730078
C      -3.08549144     -0.51449023     -1.24257767
C       0.28835404      0.02960637      0.35030213
F      -0.09924573      0.93352523      1.26768973
C       1.66900777     -0.23309502      0.18064513
H       1.44731695      2.78898396      0.76473494
H       2.04756338      3.40890634      2.31195340
H       3.17913269      3.04209075      0.99916625
H       1.54209683      0.98886053      2.62469681
H       3.23555584      1.29953512      2.75901257
H       4.75653153      0.55371001      1.27497312
H       5.44610754     -2.28206333     -1.93425530
H       1.29637464     -2.44593248     -2.42808110
H      -1.87638265     -0.29752862      1.95442074
H      -2.69303878     -1.68630540      1.23254375
H      -3.78360521      1.16725896      1.56743828
H      -4.31217388     -0.27091400      2.41685915
H      -5.17406682     -1.16060679      0.43597218
H      -5.17850959     -0.20341127     -1.64450503
H      -3.60864665      2.16243418     -0.49916036
H      -4.12618541      1.92060411     -2.17016398
H      -5.33459373      2.16050386     -0.90445372
H      -2.72705707     -0.15319077     -2.21435804
H      -3.26021807     -1.59579111     -1.31486310
