20
N#CSCSc1nc2ccccc2s1
N      -4.73574825     -1.35645427      3.58119628
C      -4.59650732     -1.74427094      2.49785172
S      -4.36623891     -2.29179166      0.91856779
C      -2.79152491     -1.44546886      0.61759172
S      -2.19337644     -1.80799866     -1.05485522
C      -0.70684287     -0.88429762     -1.05140599
N      -0.33176605     -0.18869180     -0.00427044
C       0.87404779      0.43949924     -0.27205502
C       1.58682275      1.27213558      0.61440881
C       2.79790248      1.84339746      0.20999049
C       3.30428554      1.59560762     -1.06205737
C       2.61715856      0.77312541     -1.96023023
C       1.40220038      0.20444700     -1.54368432
S       0.33560588     -0.83633326     -2.40623104
H      -2.93753690     -0.36600110      0.72683844
H      -2.05425505     -1.78695182      1.35131309
H       1.18988838      1.46519872      1.60626350
H       3.34492829      2.48571867      0.89662499
H       4.24736926      2.04738927     -1.36375503
H       3.01358738      0.58174103     -2.95300915
