12
Ic1ccc(I)cc1
I      -3.41505849      0.61372346      0.05382165
C      -1.36975674      0.24616031      0.02158750
C      -0.47375579      1.31541412     -0.01294137
C       0.90138346      1.06828650     -0.03461449
C       1.36975674     -0.24616030     -0.02158738
I       3.41505849     -0.61372346     -0.05382169
C       0.47375580     -1.31541411      0.01294218
C      -0.90138347     -1.06828651      0.03461376
H      -0.82868867      2.34291053     -0.02333305
H       1.59128982      1.90801380     -0.06147498
H       0.82868871     -2.34291049      0.02333537
H      -1.59128987     -1.90801384      0.06147250
