24
OCC1OC(O)C(O)C(O)C1O
O       2.57689173      0.60933802      1.66035744
C       2.64254508      0.36590357      0.25403760
C       1.25674005     -0.00263901     -0.29149070
O       0.77314832     -1.10711881      0.50045803
C      -0.50305568     -1.55766357      0.07701623
O      -0.89692805     -2.63245769      0.91944512
C      -1.55491613     -0.44717092      0.20963469
O      -2.84315370     -0.89319123     -0.24029364
C      -1.12184639      0.75241998     -0.62419104
O      -2.02932415      1.84925963     -0.43322624
C       0.29221081      1.19488844     -0.23900326
O       0.71059032      2.21667797     -1.14978512
H       2.11228707     -0.16170223      2.03884387
H       3.05646588      1.25062293     -0.23809340
H       3.33782189     -0.46760413      0.10837586
H       1.38291351     -0.33558694     -1.33015371
H      -0.45696878     -1.94221517     -0.94918119
H      -0.22142007     -3.31826944      0.78049902
H      -1.67654963     -0.15054877      1.25888525
H      -3.01284081     -1.71789781      0.25910955
H      -1.16912791      0.51510422     -1.69453837
H      -2.92329102      1.45863109     -0.51396916
H       0.27260715      1.63645493      0.76495205
H      -0.00479950      2.88476494     -1.12768887
