15
CCN(N=O)C(N)=O
C      -1.92744993     -0.48758472      0.21842711
C      -0.87805766      0.52791867      0.64374283
N       0.34780888      0.40794808     -0.13508964
N       0.45946068      1.09264281     -1.46296537
O      -0.52160625      1.78883793     -1.74184808
C       1.34680086     -0.45670250      0.27878580
N       2.44606269     -0.55763685     -0.52253232
O       1.29742015     -1.13777948      1.30138853
H      -2.82768094     -0.38291169      0.83173786
H      -1.55383036     -1.51065649      0.33097305
H      -2.21064985     -0.34953533     -0.82995492
H      -1.26927217      1.54781408      0.56063264
H      -0.64085109      0.37046910      1.70247822
H       2.73448944      0.25383928     -1.05086547
H       3.19735557     -1.10666291     -0.12491025
