48
CCCCCCCCCCCC(=O)N(C)CC(=O)O
C      -6.16952059      1.88410429     -0.62702305
C      -5.91852173      0.38729268     -0.71985590
C      -4.77386668     -0.04590446      0.19708109
C      -4.51798027     -1.55097131      0.09075014
C      -3.45468769     -2.05814407      1.06964342
C      -2.05317195     -1.51325791      0.78111830
C      -1.01534287     -2.13474460      1.71964678
C       0.38728963     -1.54181224      1.55036374
C       1.01116416     -1.84608084      0.18575212
C       2.48480058     -1.43850417      0.09129263
C       2.70090891      0.07387199      0.17181190
C       4.15983905      0.45503354     -0.01727881
O       5.02416343     -0.36994629     -0.32747239
N       4.50478535      1.78893855      0.12961467
C       3.55256217      2.89106466      0.09800767
C       5.92145014      2.15260822      0.00290390
C       6.39077094      2.24136796     -1.44572012
O       6.84248365      3.26065945     -1.95030934
O       6.30295091      1.07314870     -2.12563854
H      -6.43589233      2.17486813      0.39423812
H      -5.28063359      2.44989987     -0.92450591
H      -6.99275209      2.17279434     -1.28839606
H      -5.68360493      0.12553531     -1.75809606
H      -6.83608832     -0.14833863     -0.44954454
H      -5.01716573      0.21314399      1.23478963
H      -3.86892874      0.50964574     -0.07361285
H      -5.45297879     -2.08806786      0.29417357
H      -4.22480016     -1.80560768     -0.93510715
H      -3.74828722     -1.80353074      2.09536459
H      -3.43122215     -3.15360078      1.01044680
H      -1.79293718     -1.72802611     -0.26121769
H      -2.04026980     -0.42487968      0.90513479
H      -1.33090542     -1.97462816      2.75803795
H      -0.97711431     -3.21977582      1.56526432
H       1.02976806     -1.95388644      2.33812378
H       0.34010616     -0.45895717      1.71279490
H       0.44900480     -1.34245358     -0.60882221
H       0.94125979     -2.92351309     -0.00809999
H       3.06029878     -1.93978743      0.87952589
H       2.88108257     -1.80922312     -0.86273590
H       2.11160919      0.56257388     -0.61184270
H       2.37940197      0.44430157      1.15039500
H       2.53296242      2.56934450      0.31131666
H       3.57697367      3.34240679     -0.89811583
H       3.84348932      3.63549954      0.84467568
H       6.54533404      1.41193648      0.51637893
H       6.09009998      3.11593799      0.49599501
H       5.95211287      0.33766404     -1.56336851
