45
CCOc1ccccc1OS(=O)(=O)NC(=O)Nc1nc(OC)cc(OC)n1
C       4.37774369     -3.29544464      0.01210855
C       4.92979241     -1.90562631      0.27321014
O       3.99137263     -0.95932258     -0.23353245
C       4.19678468      0.35533215      0.07954049
C       5.40188621      0.88390120      0.54997976
C       5.52245314      2.25493332      0.80171777
C       4.44468363      3.10913232      0.57650053
C       3.24142369      2.59361240      0.10171770
C       3.11661905      1.22234832     -0.13154587
O       1.90726744      0.79025467     -0.61466616
S       1.04759768     -0.30184482      0.24127890
O       1.36447179     -0.23289623      1.65313285
O       1.07077890     -1.57489655     -0.45486799
N      -0.51862854      0.19674229      0.08323562
C      -0.99674957      1.46214936      0.35999636
O      -0.26079686      2.40147229      0.63664835
N      -2.34126355      1.65867637      0.30106857
C      -3.34034261      0.74906771      0.00716067
N      -4.58067103      1.24562391      0.03773931
C      -5.57274511      0.38301081     -0.24454765
O      -6.88512873      0.81323962     -0.23440503
C      -7.02986302      2.18965041      0.10155031
C      -5.37369541     -0.93635924     -0.55405742
C      -4.06472173     -1.33834896     -0.55867034
O      -3.83768036     -2.66419868     -0.87004377
C      -2.46102662     -3.03144987     -0.87993134
N      -3.03000566     -0.52411829     -0.28222412
H       4.20748779     -3.44825339     -1.05877579
H       5.06729453     -4.06327096      0.37385107
H       3.41121617     -3.42555987      0.51022481
H       5.88850869     -1.79721690     -0.24611630
H       5.06922415     -1.77339515      1.35263372
H       6.27161579      0.25774865      0.71847904
H       6.46365298      2.65674901      1.16914587
H       4.54074074      4.17403486      0.77103915
H       2.39558939      3.25458853     -0.07060687
H      -1.17754837     -0.54835085     -0.12484180
H      -2.65880555      2.59145413      0.50932379
H      -6.53362097      2.83121780     -0.63480030
H      -8.09801098      2.42668997      0.08424277
H      -6.65945342      2.39167436      1.11253887
H      -6.18834823     -1.60905663     -0.77843177
H      -1.90691090     -2.46591123     -1.63685972
H      -2.39986704     -4.09170969     -1.14313048
H      -2.01232090     -2.90607367      0.11140123
