21
O=Cc1c(O)ccc2ccccc12
O       2.96676581     -2.18495888      0.08111104
C       1.75308416     -1.98796227      0.06843571
C       1.19778124     -0.61386048      0.02483059
C       2.09737850      0.46669142     -0.00189611
O       3.46019757      0.32158872      0.01010932
C       1.63424028      1.77325033     -0.04297765
C       0.26486426      2.01826667     -0.05792845
C      -0.65964123      0.96335183     -0.03208263
C      -2.03342361      1.25450035     -0.04841829
C      -2.98538143      0.23890741     -0.02389095
C      -2.57461226     -1.08456862      0.01739235
C      -1.21106329     -1.39285863      0.03417969
C      -0.21077275     -0.38439865      0.01013241
H       1.06066726     -2.83990826      0.08960678
H       3.66720074     -0.64015169      0.03956632
H       2.33946788      2.60003629     -0.06331487
H      -0.07573449      3.05182864     -0.09029032
H      -2.37731149      2.28705405     -0.08079605
H      -4.04431994      0.48378843     -0.03710886
H      -3.31320739     -1.88251032      0.03667524
H      -0.95617982     -2.44808635      0.06666472
