36
CCOc1ccc(NS(=O)(=O)c2ccc([N+](=O)[O-])cc2)cc1
C       4.53570682      2.19853912      2.57353301
C       3.85476629      1.65567269      1.33000725
O       3.01034510      0.57600319      1.72670216
C       2.30502718     -0.05811175      0.74281505
C       1.50682811     -1.11539613      1.18811505
C       0.72918268     -1.85001332      0.29010322
C       0.74462770     -1.52391496     -1.06431673
N      -0.08428239     -2.25395412     -1.95822706
S      -1.33969899     -1.46767790     -2.76478930
O      -2.17695984     -2.50829442     -3.32320106
O      -0.80169846     -0.41076254     -3.59316101
C      -2.25681726     -0.70978985     -1.43608162
C      -2.02994720      0.63376243     -1.11404125
C      -2.75567873      1.22889528     -0.07925592
C      -3.71373078      0.47613753      0.61603376
N      -4.47673222      1.09896489      1.70611838
O      -5.27456731      0.38522332      2.33021926
O      -4.27479594      2.29899338      1.93864073
C      -3.95367357     -0.86509385      0.27881279
C      -3.22493603     -1.45794430     -0.75558576
C       1.54284077     -0.47503229     -1.51733689
C       2.32231310      0.25805645     -0.61556614
H       3.79279831      2.54264049      3.30076498
H       5.19756629      3.03233080      2.32314997
H       5.12325268      1.41550963      3.06428256
H       3.26056098      2.45376140      0.87018111
H       4.61938273      1.30264297      0.62842649
H       1.49243214     -1.36731463      2.24623925
H       0.11451661     -2.66276008      0.66512501
H      -0.31628237     -3.21714379     -1.72195824
H      -1.28979642      1.21855214     -1.65791581
H      -2.56570718      2.27164886      0.16943519
H      -4.70366529     -1.45377225      0.80457326
H      -3.42008671     -2.49390084     -1.02693945
H       1.57615389     -0.22194917     -2.57476713
H       2.93075534      1.06549164     -1.00959043
