28
CCN(C(N)=O)c1ccc(OC)cc1
C      -3.15047873     -1.33065045     -0.72300433
C      -2.58809102     -0.62554453      0.50456164
N      -1.72340134      0.50603587      0.15051014
C      -2.37767569      1.68189226     -0.20130869
N      -1.63452727      2.63512619     -0.82128304
O      -3.58188852      1.88155287     -0.06039088
C      -0.30330302      0.34771699      0.28599523
C       0.30763790     -0.89845962      0.08168620
C       1.69387595     -1.06673923      0.22065839
C       2.49856804      0.00936025      0.58252847
O       3.85399564     -0.01616443      0.75192960
C       4.50458712     -1.26445906      0.55021555
C       1.90260782      1.24832488      0.80845967
C       0.51972288      1.41500365      0.66736668
H      -3.78078623     -2.17230735     -0.41970217
H      -3.76096995     -0.65070868     -1.32597302
H      -2.35241180     -1.71477962     -1.36535949
H      -3.42447579     -0.25145038      1.10824684
H      -2.05624310     -1.33486669      1.14848656
H      -0.90675706      2.29511873     -1.43438424
H      -2.19757286      3.38283254     -1.20513413
H      -0.27279781     -1.76506458     -0.22078386
H       2.10697204     -2.05273750      0.03551458
H       4.38350051     -1.61016957     -0.48171640
H       4.14857114     -2.01515391      1.26353313
H       5.57409076     -1.11674238      0.72842941
H       2.51568838      2.09394150      1.11158605
H       0.10156203      2.38909222      0.90884691
