23
NS(=O)(=O)c1cc2c(s1)C(O)CCS2
N       2.89034570      3.00135156     -1.39252770
S       2.97784118      1.32316383     -1.30874696
O       4.05373907      1.02991624     -0.39255845
O       2.94797999      0.85878970     -2.67494874
C       1.49027550      0.75489654     -0.54468608
C       0.39047300      1.42051688     -0.03923977
C      -0.57537271      0.52239391      0.48213585
C      -0.19522670     -0.79567259      0.37285048
S       1.33950712     -0.94093333     -0.37228821
C      -0.95448490     -2.00644965      0.81035903
O      -1.55572358     -2.56982957     -0.35329896
C      -2.05348640     -1.66820676      1.81940532
C      -2.96170979     -0.53645216      1.33887669
S      -2.07735746      1.05419471      1.21423339
H       2.91628721      3.28066389     -2.37501789
H       3.66954248      3.39553741     -0.86210311
H       0.29867502      2.50011233     -0.05140257
H      -0.28773567     -2.75985149      1.24514938
H      -0.83840684     -2.72718585     -0.99278445
H      -2.67493335     -2.55795807      1.98043158
H      -1.61029498     -1.40474127      2.78843141
H      -3.40359529     -0.77263654      0.36497628
H      -3.78633860     -0.40161973      2.04627587
