22
Clc1ccc(Cl)c(-c2cccc(Cl)c2Cl)c1
Cl     -3.82379624      1.01934175      2.26868112
C      -2.89864060      0.33987098      0.98763401
C      -3.54178722     -0.33508585     -0.04602795
C      -2.78965402     -0.88271865     -1.08568215
C      -1.39625803     -0.75454515     -1.08812857
Cl     -0.52997477     -1.45016672     -2.41435352
C      -0.73283255     -0.07656951     -0.04634227
C       0.73220696      0.07973456     -0.00629223
C       1.30450872      1.22893201     -0.58513910
C       2.68481626      1.42729152     -0.57956909
C       3.51869088      0.47952846      0.00727492
C       2.97573239     -0.66863492      0.59119839
Cl      4.08383709     -1.79167434      1.30219030
C       1.58644492     -0.87500684      0.58954839
Cl      0.90780002     -2.29772560      1.32489742
C      -1.50944461      0.47155342      0.99189157
H      -4.62383317     -0.43938588     -0.04864323
H      -3.29446079     -1.41008975     -1.89178149
H       0.66729397      1.97820669     -1.05400822
H       3.10901516      2.31905798     -1.03568577
H       4.59458106      0.63974190      0.00665169
H      -1.02424543      0.99834397      1.81168578
