23
CN(C)CCCNC=O
C      -2.43002286      1.68351596      0.26806317
N      -1.52272658      0.57189859     -0.03346202
C      -2.29411862     -0.66432640     -0.18167573
C      -0.50099026      0.45903784      1.02094635
C       0.65764497     -0.48330048      0.67252095
C       1.38993606     -0.06289422     -0.59889483
N       2.51090746     -0.93910321     -0.88220010
C       3.73079234     -0.78206043     -0.27831118
O       4.02345677      0.08408784      0.53290215
H      -2.96082350      1.53858847      1.21645924
H      -3.17267340      1.80209428     -0.52963101
H      -1.87834127      2.62947233      0.32071380
H      -2.79252207     -0.95796529      0.74978548
H      -3.06087708     -0.54788452     -0.95728930
H      -1.65537789     -1.49011000     -0.50923023
H      -0.95659109      0.13568094      1.96573507
H      -0.06587056      1.44926942      1.20740459
H       0.30607240     -1.51728673      0.57698648
H       1.36042874     -0.48514774      1.51443003
H       0.72912088     -0.10845324     -1.46940477
H       1.76311462      0.96327782     -0.50498162
H       2.36795467     -1.72883506     -1.49723600
H       4.45150625     -1.54955617     -0.60693224
