32
O=C1NCCc2cc(C#Cc3ccccc3)ccc21
O      -4.87434682      1.96463388      1.80365736
C      -4.48088287      1.01056290      1.14474262
N      -5.36170304      0.08029382      0.64283007
C      -4.97710086     -0.83258909     -0.40920625
C      -3.61096479     -1.45379816     -0.13749915
C      -2.60914013     -0.38409499      0.21250476
C      -1.24166741     -0.57615853     -0.03096736
C      -0.31602420      0.40649308      0.33517284
C       1.07630727      0.20631725      0.07720589
C       2.24583225      0.03731192     -0.13958829
C       3.63809459     -0.16433587     -0.39721441
C       4.43869298     -0.80826139      0.54916611
C       5.79790937     -1.00503731      0.29695752
C       6.35718966     -0.55860966     -0.90034438
C       5.55933122      0.08478503     -1.84644259
C       4.19995293      0.28225276     -1.59559594
C      -0.74878100      1.58024148      0.95733393
C      -2.10723180      1.77456220      1.21788626
C      -3.03613457      0.79605732      0.84827302
H      -6.33543542      0.33550249      0.75785218
H      -4.96195096     -0.26098373     -1.34475923
H      -5.74803588     -1.60486569     -0.49020775
H      -3.28711046     -2.01656998     -1.02016355
H      -3.67557388     -2.15162034      0.70623138
H      -0.89556032     -1.49312050     -0.50409943
H       4.01066858     -1.15855080      1.48528636
H       6.41984628     -1.50569393      1.03449572
H       7.41557716     -0.71158966     -1.09589306
H       5.99543699      0.43330586     -2.77904640
H       3.58512809      0.78535408     -2.33790635
H      -0.03340058      2.34631197      1.24822598
H      -2.43892242      2.68597127      1.71111211
