57
CCCCCCC(O)CCCCCCCCCCC(=O)[O-].[Li+]
C      -8.25112222      1.66553398     -0.06363767
C      -8.18655005      0.24631369      0.47914108
C      -6.77980788     -0.35663780      0.44479871
C      -6.23939852     -0.54588676     -0.97510744
C      -4.93187452     -1.34397894     -1.02389089
C      -3.75874926     -0.62794902     -0.34351515
C      -2.43241907     -1.37596859     -0.54062346
O      -2.54989681     -2.66268544      0.06215668
C      -1.27200861     -0.59727427      0.09691989
C       0.09405582     -1.22517172     -0.20347923
C       1.26869749     -0.47147234      0.43117322
C       1.49258021      0.92079574     -0.16554154
C       2.70762474      1.64599824      0.42345479
C       4.04319328      1.00960243      0.02872246
C       5.22548426      1.83967695      0.53642421
C       6.58243313      1.30833365      0.06378901
C       6.94553018     -0.05180077      0.66846906
C       8.33648610     -0.51716687      0.24446918
C       8.49591871     -0.92741872     -1.22357840
O       7.44319770     -1.27492048     -1.82614375
O       9.68547970     -0.87954461     -1.65030898
Li      0.00000000      0.00000000      0.00000000
H      -9.25696386      2.07498493      0.07461778
H      -7.54495440      2.31868721      0.45854274
H      -8.02570906      1.69620684     -1.13365346
H      -8.53539226      0.25436580      1.51872718
H      -8.87978759     -0.39080206     -0.08218382
H      -6.81161361     -1.32951042      0.95044742
H      -6.10313103      0.28149520      1.02439611
H      -6.08278199      0.42810711     -1.45259338
H      -6.98693212     -1.07818303     -1.57611882
H      -4.68009725     -1.52175475     -2.07677269
H      -5.08957730     -2.32788978     -0.56628881
H      -3.67100681      0.38838476     -0.74582279
H      -3.96535547     -0.54462466      0.73008301
H      -2.24869974     -1.51600823     -1.61250495
H      -1.76839315     -3.18050677     -0.19551194
H      -1.29264244      0.43228758     -0.27593216
H      -1.40864401     -0.56048788      1.18489482
H       0.11583452     -2.25225868      0.17868827
H       0.24243691     -1.28762457     -1.28831829
H       2.16606074     -1.08271088      0.28523457
H       1.11333322     -0.39035370      1.51368831
H       0.61202791      1.54458375      0.02418302
H       1.60111410      0.84713480     -1.25428738
H       2.68881245      2.68360929      0.06729948
H       2.62189323      1.68509560      1.51612893
H       4.10335674     -0.00164753      0.44171009
H       4.09906336      0.92192447     -1.06289129
H       5.20600563      1.88375385      1.63209029
H       5.11978030      2.87067836      0.17649625
H       6.58852745      1.25301051     -1.03088180
H       7.35180844      2.03815463      0.34541463
H       6.20303096     -0.80684157      0.38959407
H       6.92212584      0.02677172      1.76226510
H       9.07221943      0.26163936      0.48067818
H       8.60539646     -1.39804960      0.84113163
