27
CNC(=S)N(C)c1ccc(Cl)cc1C
C       3.29585585      0.43317570     -1.59151238
N       2.08015252      0.25039232     -0.82355285
C       1.97400851      0.25198709      0.56031769
S       3.29459717      0.52935383      1.56759168
N       0.66683781     -0.04392793      1.01921954
C       0.40364052     -0.22060935      2.45575146
C      -0.49924109      0.20941540      0.22711079
C      -0.64116451      1.46266059     -0.39286757
C      -1.78149503      1.76649588     -1.13762091
C      -2.78966138      0.81829890     -1.26618958
Cl     -4.20225590      1.18993642     -2.17489453
C      -2.66050680     -0.43468208     -0.66770644
C      -1.50883775     -0.76272047      0.07106749
C      -1.40730720     -2.14873689      0.64803498
H       3.80593005      1.34831970     -1.28069248
H       3.94848507     -0.43091691     -1.44146497
H       3.02462134      0.50885548     -2.64741062
H       1.32056344     -0.20791274     -1.30966274
H      -0.64650182     -0.44197780      2.66305978
H       0.66382376      0.70136211      2.98619974
H       1.01800350     -1.04349158      2.83418853
H       0.12855974      2.22304027     -0.27522985
H      -1.87819146      2.74435100     -1.60136843
H      -3.45590751     -1.16767886     -0.78718763
H      -1.85828221     -2.17952456      1.64419598
H      -1.92853180     -2.87188774      0.01080855
H      -0.36719481     -2.48357778      0.70981475
