42
CC(C)C(C)C(C)C(O)C#CC(C)C(C)O
C      -3.40078370     -0.18508925      1.65015657
C      -3.42258659     -0.81917705      0.25712317
C      -4.86842795     -1.16268327     -0.12745510
C      -2.69922359      0.03671631     -0.83283653
C      -3.43147869      1.36941046     -1.08382356
C      -1.17039833      0.28451408     -0.54219222
C      -0.51830162      1.04667290     -1.71738324
C      -0.39269625     -1.02537094     -0.24859772
O      -0.42058119     -1.87274169     -1.39240593
C       1.00818565     -0.77959526      0.14151239
C       2.15086476     -0.58219859      0.45754723
C       3.55999235     -0.32467425      0.83581903
C       3.60661774      0.77149573      1.90326560
C       4.39280385      0.01177428     -0.42520021
C       5.89294333     -0.00046425     -0.15425259
O       4.06233398      1.30202510     -0.94557509
H      -2.37826641     -0.01991011      2.00116567
H      -3.88946930     -0.84279113      2.37787603
H      -3.92816590      0.77372598      1.66702650
H      -2.91183671     -1.78602604      0.32366659
H      -5.53360492     -0.29715468     -0.05152141
H      -5.26586704     -1.93403193      0.54235098
H      -4.92003031     -1.55362151     -1.14886833
H      -2.76299323     -0.53515230     -1.76996019
H      -3.29584932      2.06382233     -0.24838220
H      -3.06634514      1.85813216     -1.99248534
H      -4.50394342      1.22660024     -1.23853358
H      -1.08747481      0.93307441      0.34051112
H      -0.68606270      0.53135377     -2.66922832
H       0.56143094      1.16058568     -1.58175221
H      -0.91753153      2.06187643     -1.80269035
H      -0.85986284     -1.56951962      0.57715667
H       0.15369203     -2.63093393     -1.19048655
H       3.95697482     -1.24919291      1.27582742
H       3.00738000      0.48778226      2.77611705
H       3.20653022      1.72085763      1.52965786
H       4.62886733      0.94538978      2.25222266
H       4.18430748     -0.72061111     -1.21554288
H       6.18544513      0.80164935      0.53167170
H       6.21614801     -0.96006214      0.26112142
H       6.44419596      0.17656305     -1.08467746
H       3.11306789      1.28698002     -1.16365208
