33
CCCC(Cn1cncn1)c1ccc(Cl)cc1Cl
C      -1.55466477      1.94972440     -2.80053611
C      -0.67777310      1.67149020     -1.58908684
C      -0.94077500      0.27209013     -1.01968473
C      -0.12445899     -0.02046217      0.26550376
C      -0.48332792     -1.38979924      0.87705081
N      -1.82707999     -1.44721078      1.40863976
C      -2.26779082     -0.98155092      2.60759989
N      -3.54952859     -1.23845452      2.73091607
C      -3.84650530     -1.88383339      1.56395631
N      -2.82074650     -2.03895570      0.72214853
C       1.39185416      0.03825728      0.06700525
C       1.98472158     -0.60400948     -1.03788145
C       3.36775095     -0.57341227     -1.23386265
C       4.18190947      0.08824652     -0.32158598
Cl      5.88425317      0.12313146     -0.56382997
C       3.62815479      0.71155624      0.79084873
C       2.24399335      0.68122041      0.98851476
Cl      1.64438789      1.43758237      2.42370652
H      -1.35935335      1.22753775     -3.59967003
H      -2.61601950      1.89441725     -2.53829614
H      -1.35359542      2.95203678     -3.19151567
H       0.37127280      1.77773583     -1.88471878
H      -0.87751026      2.42781896     -0.82114584
H      -2.01034618      0.20203361     -0.78653434
H      -0.74894144     -0.48424490     -1.78958239
H      -0.42589391      0.75966289      0.97392503
H       0.18481839     -1.63294529      1.71338918
H      -0.37772022     -2.19600600      0.14034324
H      -1.63717972     -0.47859655      3.32764196
H      -4.83610702     -2.25049140      1.32290170
H       1.37861263     -1.14020154     -1.76584602
H       3.80070064     -1.06965947     -2.09939067
H       4.27288817      1.21529154      1.50663706
