56
CCOc1ccccc1NC(=O)C1=Cc2ccccc2/C(=N\Nc2ccc(C(N)=O)cc2)C1=O
C      -4.92426924      2.53866282      0.96282260
C      -5.42451724      1.84676230     -0.29108092
O      -4.51233598      0.79504410     -0.60292827
C      -4.78500832      0.01510413     -1.70080791
C      -5.87327049      0.19369818     -2.55959257
C      -6.04834546     -0.65625768     -3.65343035
C      -5.14110188     -1.68500666     -3.89020028
C      -4.05086959     -1.87121414     -3.03710370
C      -3.86329765     -1.02794427     -1.93990839
N      -2.78533998     -1.14641671     -1.03185285
C      -1.76050783     -2.06248159     -1.03320222
O      -1.61512228     -2.97855320     -1.83965184
C      -0.75998312     -1.88088452      0.06522560
C       0.21925066     -2.79441808      0.19938162
C       1.19676457     -2.75261282      1.29413672
C       1.98609277     -3.87889087      1.56008232
C       2.89604878     -3.86956677      2.61871713
C       3.01802152     -2.73996956      3.42460915
C       2.24352420     -1.60903852      3.16301191
C       1.35126876     -1.60380703      2.08535644
C       0.51112932     -0.43277442      1.73394073
N       0.76011764      0.83892797      1.88329150
N       1.97096864      1.20861958      2.38242565
C       2.96627179      1.63498877      1.45573578
C       2.85977724      1.43596690      0.07325779
C       3.89685575      1.81361721     -0.78787850
C       5.07465137      2.36994823     -0.27616174
C       6.14793239      2.75606240     -1.23331543
N       7.42094910      2.87539136     -0.74365228
O       5.91852093      2.92911439     -2.42554333
C       5.19911413      2.55958618      1.10459375
C       4.15605355      2.18374024      1.96016279
C      -0.80228715     -0.77048780      1.04227586
O      -1.81807090     -0.13205079      1.27950437
H      -5.59008526      3.35890395      1.24828340
H      -4.85866860      1.82905969      1.79418737
H      -3.91423799      2.93868434      0.80539444
H      -5.46017050      2.57301940     -1.11057260
H      -6.42558096      1.44049172     -0.10200136
H      -6.59911202      0.98467455     -2.40910105
H      -6.89419779     -0.51559719     -4.32195081
H      -5.27628564     -2.34639134     -4.74287943
H      -3.36762817     -2.68348898     -3.25555938
H      -2.81807898     -0.44968953     -0.27894699
H       0.28397424     -3.63741032     -0.48543523
H       1.89480282     -4.77809969      0.95329268
H       3.50350516     -4.74892642      2.82091229
H       3.71715444     -2.73857928      4.25777737
H       2.34014912     -0.74634265      3.81481426
H       1.88899466      1.93858612      3.09635888
H       1.95899105      1.00562390     -0.35565393
H       3.78074953      1.67021958     -1.86132579
H       7.69865153      2.45736322      0.13365314
H       8.14287057      3.00556719     -1.44306443
H       6.08632112      3.01598705      1.53365552
H       4.27889568      2.32348536      3.03218300
