19
CCN1CCCC1=O
C       2.41047442     -0.11849038     -0.47094251
C       1.54831778      0.49259350      0.62116194
N       0.13553997      0.22290428      0.42933384
C      -0.65331004      0.90863899     -0.56197520
C      -2.05818459      0.41586198     -0.27906577
C      -1.84562184     -1.01113483      0.21271775
C      -0.46961812     -0.96188874      0.83287980
O       0.02563362     -1.83897643      1.52079732
H       2.15820526      0.29626733     -1.45208110
H       2.27288748     -1.20355302     -0.52145031
H       3.46833782      0.08432738     -0.27781364
H       1.68758721      1.57782983      0.66283075
H       1.84914515      0.07573238      1.58872255
H      -0.31624785      0.60386604     -1.55820114
H      -0.55958271      1.99203897     -0.44849752
H      -2.50897383      1.01452389      0.52244318
H      -2.71424207      0.47348437     -1.15198701
H      -2.59800049     -1.30150110      0.94974130
H      -1.83234716     -1.72252446     -0.61861424
