67
CCCCCCCCCCCCCCCCCCP(=O)(OC)OC
C      10.63979027      0.09339066     -1.52187789
C       9.73100718     -0.43148078     -0.42060567
C       8.40232222      0.32220813     -0.31177793
C       7.47906888      0.09208867     -1.51115242
C       6.16096208      0.86847432     -1.42329362
C       5.25005348      0.40380824     -0.28330989
C       3.89956174      1.12437746     -0.33021034
C       2.99324893      0.80886394      0.86496012
C       2.52123662     -0.64635599      0.90138355
C       1.62001991     -0.96390472      2.09977276
C       0.30624165     -0.17950228      2.18112112
C      -0.59745102     -0.37445584      0.96149000
C      -1.95932471      0.29672580      1.16594048
C      -2.85748049      0.10866288     -0.05908143
C      -4.20577450      0.82829675      0.05437479
C      -5.13004464      0.21543903      1.10945222
C      -6.48016386      0.92717222      1.23135868
C      -7.32730846      0.95503300     -0.03739861
P      -7.78189907     -0.63812695     -0.70832417
O      -6.66415932     -1.46168214     -1.27093310
O      -8.94617617     -0.30901860     -1.77871947
C      -8.54287761      0.16670630     -3.04742532
O      -8.60371413     -1.35131973      0.48300533
C      -9.00567709     -2.68870486      0.26207383
H      10.82224821      1.16621206     -1.40201568
H      10.21182441     -0.07726574     -2.51395206
H      11.60641339     -0.41970223     -1.48653891
H      10.26020950     -0.34012146      0.53568202
H       9.54426573     -1.50027503     -0.57863319
H       8.59626828      1.39468328     -0.19076061
H       7.90316316     -0.01557797      0.60339008
H       7.26804589     -0.97899797     -1.61537411
H       7.98595648      0.40631937     -2.43034403
H       5.63096764      0.74508174     -2.37627382
H       6.37271914      1.93935671     -1.31605614
H       5.72688948      0.60067010      0.68311988
H       5.10135539     -0.67863447     -0.36334969
H       3.37886373      0.87458571     -1.26262876
H       4.07480684      2.20723695     -0.34658679
H       2.12469371      1.47441618      0.80583952
H       3.51679887      1.05201757      1.79735608
H       3.39062311     -1.31095166      0.96189426
H       2.00710322     -0.89572550     -0.03366660
H       2.18524347     -0.79068687      3.02428809
H       1.38767133     -2.03632455      2.08025600
H      -0.22821183     -0.51216414      3.08012146
H       0.51085033      0.88780043      2.32466639
H      -0.11917654      0.04807366      0.07036424
H      -0.74148147     -1.44634728      0.77770539
H      -2.43816495     -0.13074230      2.05363527
H      -1.81669309      1.36731304      1.35645040
H      -2.33691809      0.49750147     -0.94322962
H      -3.02529241     -0.96053836     -0.23686830
H      -4.68925856      0.77804955     -0.92763755
H      -4.04121397      1.88999063      0.27333985
H      -5.28787324     -0.84712869      0.89502921
H      -4.64665627      0.26067975      2.09210355
H      -7.05390136      0.43165921      2.02407952
H      -6.31132189      1.95864286      1.56475180
H      -6.82533458      1.54230090     -0.81310248
H      -8.25580932      1.49142129      0.19292278
H      -8.01134225      1.11651756     -2.94317614
H      -7.90221098     -0.56841371     -3.54224955
H      -9.43393396      0.32652616     -3.66054021
H      -8.13120185     -3.34439356      0.26942744
H      -9.68055523     -2.98981339      1.06718510
H      -9.53189137     -2.77994680     -0.69206051
