36
CC(=O)Nc1ncc2ncn(COCCOC(C)=O)c2n1
C      -5.09441851      1.79313489      0.00739164
C      -4.35930388      1.21481724     -1.17038262
O      -4.72062831      1.47155167     -2.32264585
N      -3.28823383      0.40251016     -0.99358657
C      -2.67464820     -0.04534324      0.16415754
N      -3.14218237      0.32280229      1.37243420
C      -2.51835314     -0.13031826      2.49235941
C      -1.41655214     -0.96288652      2.36615418
N      -0.59436736     -1.57578930      3.27902020
C       0.28564456     -2.23255925      2.55075507
N       0.05247669     -2.07868264      1.21023240
C       0.80421221     -2.69644774      0.14231698
O       2.16421786     -2.26543229      0.19667615
C       2.36221353     -1.00830996     -0.45438255
C       3.82943815     -0.60488264     -0.33279690
O       4.11038923      0.58720209     -1.08125228
C       3.77168820      1.75386678     -0.46760559
C       4.15064991      2.91780040     -1.33071170
O       3.22657871      1.84773129      0.62207639
C      -1.03683566     -1.26673372      1.06983311
N      -1.61696138     -0.84868431     -0.06681416
H      -5.52425029      0.99545274      0.61818537
H      -5.91789630      2.41643773     -0.35592387
H      -4.42994775      2.42922704      0.59730334
H      -2.86056165      0.06572371     -1.84167718
H      -2.91651414      0.18397077      3.44823521
H       1.10585985     -2.82751272      2.93382238
H       0.77767332     -3.77728182      0.31442211
H       0.34592410     -2.48431513     -0.82916452
H       1.71982265     -0.24263288     -0.00672404
H       2.09103255     -1.09241036     -1.51355541
H       4.46406471     -1.40066977     -0.73924796
H       4.12814666     -0.49354555      0.71720388
H       3.90150883      3.84872286     -0.81336485
H       5.22688727      2.90416232     -1.52042785
H       3.59322590      2.87932414     -2.26986170
