14
NC(=S)NNC(N)=S
N       1.96863600      0.49240660      0.59538884
C       1.59388709     -0.68310529      0.03834036
S       2.54303788     -2.03705738      0.14523544
N       0.40332231     -0.68646487     -0.62394497
N      -0.32132793      0.48769730     -0.82589962
C      -1.57778941      0.64408202     -0.32298228
N      -2.02967920     -0.34442734      0.48399526
S      -2.51228699      1.96251082     -0.68898820
H       1.25750221      1.19409300      0.75394019
H       2.78266115      0.50287956      1.19710473
H       0.10728067     -1.51885210     -1.12829940
H       0.04130921      1.15864648     -1.49910398
H      -2.90536205     -0.20543110      0.97253199
H      -1.35119094     -0.96697771      0.90268165
