24
O.O=C(O)CC(O)(CC(=O)O)C(=O)O
O       0.09738732      0.38571051      0.00000000
O       2.05792593     -0.54066877      1.76386900
C       2.01488417     -1.11955865      0.69065318
O       3.06731925     -1.81485478      0.22727985
C       0.82866245     -1.19150976     -0.22738537
C      -0.20637233     -0.10949409      0.11681459
O      -0.76687624     -0.39615535      1.41278050
C      -1.36577606     -0.17385049     -0.88106180
C      -2.40782490      0.88676939     -0.62388190
O      -2.84555331      1.62340709     -1.49486284
O      -2.86196468      0.91662615      0.64736907
C       0.45019864      1.28056833      0.01292534
O       1.12483016      1.68845555     -0.91685901
O       0.21128870      2.04711563      1.09464094
H      -0.78893085     -0.00595429      0.00000000
H       0.69154353     -0.37975622      0.00000000
H       3.77038295     -1.70552155      0.90241176
H       0.39212268     -2.19072706     -0.11656099
H       1.18497762     -1.06426329     -1.25649154
H      -0.05974370     -0.16875155      2.06086840
H      -0.99923791     -0.03605650     -1.90585927
H      -1.87728148     -1.14295203     -0.83518698
H      -2.35750577      0.30508158      1.23763552
H       0.64554384      2.90634014      0.90357335
