36
CS(=O)(=O)c1ccc(C2=C(c3ccccc3)C(=O)OC2)cc1
C       4.36275714      2.15913816     -0.09279720
S       4.47890046      0.53064601     -0.78587423
O       5.43354462     -0.22645188      0.00127602
O       4.63205087      0.65706039     -2.22239682
C       2.86889051     -0.15780367     -0.48149535
C       1.83945377      0.07317313     -1.39423516
C       0.57783251     -0.47944983     -1.16044443
C       0.33613129     -1.26671710     -0.02342941
C      -0.98559547     -1.86157787      0.20553123
C      -2.18882404     -1.27201900      0.16560072
C      -2.53963978      0.13034784     -0.07432294
C      -1.90413863      1.16470873      0.62896809
C      -2.24120272      2.49987991      0.39314702
C      -3.22255001      2.81628130     -0.54311504
C      -3.87076551      1.79902911     -1.23959176
C      -3.53347140      0.46376416     -1.00447077
C      -3.17169079     -2.35173144      0.40597778
O      -4.38365870     -2.22797847      0.42202857
O      -2.51716288     -3.52819680      0.60709621
C      -1.11509890     -3.30380976      0.51712644
C       1.39174724     -1.50669089      0.86885385
C       2.65674154     -0.95609916      0.64341752
H       4.14069787      2.07789761      0.97294583
H       5.32454742      2.65679462     -0.23451794
H       3.57867937      2.71356774     -0.61187222
H       2.00737884      0.66724322     -2.29041150
H      -0.21282163     -0.29753214     -1.88715384
H      -1.14470919      0.94177308      1.37496716
H      -1.74316113      3.29189441      0.94629314
H      -3.49013166      3.85432761     -0.72330472
H      -4.64629942      2.04197389     -1.96178244
H      -4.06225102     -0.31354299     -1.55368989
H      -0.70681431     -3.93652862     -0.27732797
H      -0.65801370     -3.57567582      1.47325396
H       1.24439451     -2.11682830      1.75779108
H       3.46425294     -1.16086716      1.34383720
