30
CNS(=O)(=O)c1cc(OC)c(N)cc1OC
C      -3.08165221     -1.38700703      0.40081457
N      -3.06168644     -0.38543611     -0.66325146
S      -1.75351946     -0.38888011     -1.72854524
O      -1.92132448      0.72530028     -2.63508391
O      -1.59393530     -1.74232172     -2.21752491
C      -0.37089392     -0.02033309     -0.68319449
C       0.70868416     -0.91250688     -0.64170019
C       1.80179111     -0.63743994      0.18195550
O       2.91344465     -1.43594017      0.30964533
C       2.88758499     -2.69426679     -0.35326513
C       1.82811152      0.55228263      0.94185848
N       2.85624666      0.77295892      1.87948093
C       0.72380845      1.41117422      0.91983613
C      -0.36154687      1.14631607      0.08212907
O      -1.45147544      1.97610391      0.09462934
C      -1.13583503      3.25082380     -0.47313191
H      -2.34503820     -1.15008271      1.17246345
H      -4.07040683     -1.38041948      0.86919622
H      -2.90464695     -2.39152872      0.00877506
H      -3.28349886      0.57073683     -0.37789834
H       0.67485708     -1.80835140     -1.25359723
H       2.86548910     -2.56475017     -1.44017886
H       3.81141770     -3.22347523     -0.10053324
H       2.04802756     -3.30722125     -0.00886806
H       3.68215561      0.22171962      1.64668833
H       3.06534125      1.75037418      2.04828259
H       0.70294746      2.27658119      1.57594660
H      -2.07877884      3.76571408     -0.67976783
H      -0.56597197      3.85990390      0.23574373
H      -0.58969649      3.14997116     -1.41800529
