32
CC(C)CC1(CCO)C(=O)NC(=S)NC1=O
C       3.08747321     -0.30364960      1.51554531
C       1.97703580      0.34368353      0.67614593
C       2.49027675      0.55386715     -0.74665930
C       0.70677429     -0.53534437      0.75412908
C      -0.62629466     -0.00227362      0.12560127
C      -0.82894498      1.50876649      0.39668593
C      -2.22103524      2.05244539      0.05669250
O      -2.67063800      1.60136185     -1.21014417
C      -1.72714781     -0.80422934      0.81605628
O      -2.24631008     -0.46837266      1.87903630
N      -2.03791300     -2.01483381      0.25167426
C      -1.67232126     -2.42853917     -0.99101904
S      -2.17799100     -3.89127832     -1.59666898
N      -0.89908756     -1.58976963     -1.73004783
C      -0.61372127     -0.29861029     -1.37213948
O      -0.34453863      0.53568203     -2.23566960
H       2.76891126     -0.42708334      2.55611710
H       3.35850236     -1.28987130      1.12326175
H       3.98816149      0.31963430      1.51827521
H       1.77232391      1.32394899      1.12155452
H       2.56866029     -0.39459156     -1.28814283
H       1.83809343      1.22442027     -1.30943593
H       3.48228680      1.01916664     -0.73952640
H       0.94426155     -1.52245266      0.33247392
H       0.52101002     -0.72226117      1.82247399
H      -0.10373250      2.08255100     -0.19316125
H      -0.62524501      1.73860312      1.45027436
H      -2.95915043      1.74430598      0.80246879
H      -2.20744764      3.14745891      0.05231777
H      -2.00508056      1.87145299     -1.87523201
H      -2.71429570     -2.57545935      0.75508853
H      -0.82287583     -1.79872847     -2.71802600
