34
CC(=O)OC1CC2CCC1(C)C2(C)C
C       4.29983608      0.67810226      0.57304275
C       3.04240129      0.95092602     -0.19370140
O       2.99532226      1.57155411     -1.24595572
O       1.97755255      0.40507664      0.45481915
C       0.70866743      0.59569263     -0.18068956
C       0.51257775     -0.33862159     -1.39466983
C      -0.77274456     -1.11892238     -1.02750526
C      -0.36378897     -2.13908866      0.05774160
C      -0.15957032     -1.25426461      1.29837656
C      -0.46571442      0.17241971      0.75856597
C      -0.72437320      1.17067460      1.87186398
C      -1.62658995     -0.08302830     -0.24931079
C      -2.06211374      1.13223076     -1.09223225
C      -2.91828976     -0.66337239      0.36148384
H       4.46203096     -0.40015124      0.64681738
H       4.23235048      1.12660161      1.56736378
H       5.14906596      1.12340582      0.04691366
H       0.60708919      1.65013392     -0.46657760
H       0.35641744      0.24879445     -2.30592429
H       1.36676801     -1.00082144     -1.57119520
H      -1.25813966     -1.57985109     -1.89098210
H      -1.15258750     -2.87846273      0.23159038
H       0.54703758     -2.68794072     -0.20379287
H      -0.84890761     -1.54667044      2.09837534
H       0.85174414     -1.35666794      1.70437255
H      -0.95052948      2.16396786      1.47096438
H       0.15148982      1.26601812      2.52259942
H      -1.56923737      0.86211557      2.49599507
H      -1.24752088      1.65007901     -1.60226018
H      -2.76822202      0.82081747     -1.87096996
H      -2.56614030      1.87639275     -0.46519683
H      -3.43780861      0.09509133      0.95819159
H      -2.76628754     -1.52469239      1.01504432
H      -3.60178505     -0.98753872     -0.43195926
