19
Cc1cc(O)c(C(=O)O)cc1Cl
C       3.09912279     -0.16113256     -0.01767626
C       1.60109016     -0.03933978     -0.00872650
C       0.81525202     -1.20192562     -0.01536425
C      -0.57728949     -1.11929415     -0.00732709
O      -1.24871636     -2.31304045     -0.01485018
C      -1.21513350      0.12694350      0.00751980
C      -2.69239056      0.18949522      0.01581383
O      -3.42054149     -0.78892128      0.01057629
O      -3.18173888      1.43934609      0.02991896
C      -0.43998158      1.29261428      0.01424184
C       0.95589925      1.20745450      0.00616391
Cl      1.85230763      2.68478732      0.01513239
H       3.51566474      0.31662038     -0.91022426
H       3.41627386     -1.20949676     -0.02901966
H       3.52501088      0.30008630      0.87914789
H       1.28262789     -2.18489413     -0.02688818
H      -2.21514562     -2.13807872     -0.00818607
H      -4.15606080      1.32863238      0.03398559
H      -0.91625094      2.27014350      0.02576197
