42
COc1cncc(-c2cccc(-c3nc4c(C(N)=O)cccc4[nH]3)c2)c1
C       6.95221465     -1.74608902     -1.70831220
O       5.94101845     -0.74631808     -1.65386582
C       4.95633866     -0.92524950     -0.72536436
C       4.84214533     -1.96720026      0.18408481
N       3.83471676     -2.08346411      1.08101587
C       2.89473299     -1.10773507      1.06560498
C       2.89748264     -0.01206855      0.20143579
C       1.84278676      1.01202470      0.23959741
C       2.16059323      2.37700263      0.29869705
C       1.15796126      3.34668230      0.34268267
C      -0.18580543      2.96919142      0.32382047
C      -0.54289692      1.61674046      0.25696553
C      -1.94066108      1.17025053      0.23223065
N      -2.36050720     -0.06691207      0.43409781
C      -3.73852306     -0.04288556      0.31351940
C      -4.69498742     -1.07041879      0.43504749
C      -4.31808446     -2.46905776      0.74576528
N      -2.99206541     -2.73877219      0.92109250
O      -5.16117439     -3.35324531      0.84331827
C      -6.05247518     -0.74552549      0.25275026
C      -6.44779721      0.56176509     -0.04194326
C      -5.50927940      1.59095327     -0.16522410
C      -4.16826478      1.24693340      0.02085006
N      -3.01608505      1.98921583     -0.02842687
C       0.48213802      0.65473994      0.21982339
C       3.96522927      0.05747678     -0.70494214
H       7.65568498     -1.46752618     -2.49879924
H       6.52840110     -2.72212817     -1.96694775
H       7.50952203     -1.79423092     -0.76694063
H       5.56526987     -2.77340392      0.23909853
H       2.11013907     -1.23418190      1.80846970
H       3.20093123      2.69718099      0.32804434
H       1.42759922      4.39871528      0.40012427
H      -0.93537003      3.75288755      0.37770250
H      -2.70557536     -3.68286659      1.13324015
H      -2.29127986     -2.00526898      0.84045093
H      -6.80743282     -1.52550682      0.34229448
H      -7.50554977      0.78050085     -0.17780613
H      -5.81778442      2.60565356     -0.39464831
H      -2.96638784      2.97339325     -0.24088348
H       0.20712488     -0.39863523      0.15753128
H       4.02595672      0.87738266     -1.41719952
