50
Cc1ccc([N+](=O)[O-])cc1N/N=C1\C(=O)C(C(=O)Nc2ccccc2)=Cc2ccccc21
C       2.07768943      2.84833904     -1.59997171
C       3.25511399      2.20438896     -0.91580636
C       4.52681857      2.78542154     -1.07492964
C       5.64554554      2.23822177     -0.44960693
C       5.49184647      1.10775037      0.35610037
N       6.65775003      0.54027520      1.04169419
O       7.77203363      1.00924647      0.76482097
O       6.46545999     -0.37232101      1.85874554
C       4.23462427      0.51774069      0.52440268
C       3.10627724      1.03519954     -0.13378572
N       1.82622859      0.47095719      0.07260088
N       1.73669733     -0.72799243      0.70231603
C       0.58827362     -1.34677431      0.70395170
C      -0.66403981     -0.81013245      0.01852960
O      -0.56861972      0.04050339     -0.86393546
C      -1.97828554     -1.34842932      0.44069120
C      -3.29278963     -0.73817515      0.04437978
O      -4.33491795     -1.17952299      0.52047806
N      -3.19479684      0.30030656     -0.85614055
C      -4.23781160      1.07632514     -1.40383807
C      -3.87613242      2.06272039     -2.33126903
C      -4.84523539      2.87920756     -2.92045558
C      -6.18669772      2.71823384     -2.58654440
C      -6.55627990      1.74219161     -1.66597215
C      -5.58625738      0.92312666     -1.07723421
C      -2.01148617     -2.45737338      1.20014477
C      -0.80994869     -3.17032238      1.63354094
C      -0.93021810     -4.39154403      2.30979713
C       0.20742397     -5.07196636      2.74973743
C       1.47425392     -4.53701427      2.52561118
C       1.60633512     -3.32057866      1.85824902
C       0.46526829     -2.64274402      1.40879235
H       2.35481319      3.80275388     -2.06146076
H       1.28099014      3.05668517     -0.87890003
H       1.69589960      2.19634577     -2.39089879
H       4.64968056      3.67747647     -1.68655012
H       6.61577264      2.71059686     -0.58642725
H       4.11997098     -0.35275713      1.16681387
H       1.14268143      0.68989595     -0.65968514
H      -2.25885252      0.53893363     -1.18343792
H      -2.83520414      2.20925855     -2.60892433
H      -4.55170871      3.64013733     -3.63893913
H      -6.94398647      3.35279985     -3.04062520
H      -7.60265380      1.61388631     -1.40032515
H      -5.92142525      0.17793996     -0.36338203
H      -2.96497581     -2.87940384      1.51472808
H      -1.90880862     -4.82733020      2.50477764
H       0.10414190     -6.01950806      3.27348865
H       2.35965495     -5.06434317      2.87480658
H       2.59988678     -2.90863247      1.69294424
