13
CNCC(=O)O
C      -1.69921813      0.49034021     -0.33394568
N      -0.35587797      0.54134289      0.24240752
C       0.37363031     -0.71767763     -0.07597741
C       1.85216034     -0.52832663      0.25848738
O       2.66264345     -1.43277428      0.37974564
O       2.17379408      0.78682609      0.37469127
H      -1.65694839      0.43905669     -1.42660347
H      -2.24289214      1.40171890     -0.06681601
H      -2.26612634     -0.36590722      0.04581538
H      -0.46148438      0.58593145      1.26243762
H      -0.02555956     -1.54434480      0.51946969
H       0.31007159     -0.94492304     -1.14517544
H       1.33580716      1.28873737      0.21899333
