28
Nc1ccn(C2CCC(CO)O2)c(=O)n1
N       4.92538492     -0.34302525     -0.77198772
C       3.60929830     -0.25865838     -0.40960152
C       2.61790003      0.25082849     -1.37571661
C       1.36325089      0.32289363     -0.93578411
N       1.03738305     -0.05370282      0.34755332
C      -0.33304733     -0.02925730      0.82758437
C      -1.02912519     -1.38258156      0.72252768
C      -2.47652059     -0.98052814      0.59160112
C      -2.36801635      0.24636347     -0.29176496
C      -3.52978895      1.22145987     -0.13655219
O      -3.33336408      2.33584899     -1.00583297
O      -1.13788777      0.90790633      0.07780647
C       2.00012832     -0.57384656      1.21903698
O       1.68856810     -0.96666495      2.34217484
N       3.30524748     -0.63757085      0.79135285
H       5.27361840      0.37873718     -1.39056535
H       5.52634047     -0.49363776      0.03353097
H       2.91867262      0.52834489     -2.37485836
H       0.56524868      0.68047412     -1.57836495
H      -0.34564926      0.31971704      1.86787705
H      -0.71051451     -1.92010370     -0.17940977
H      -0.83472685     -2.02960809      1.58265367
H      -2.87759693     -0.72121323      1.57881773
H      -3.10689727     -1.76204305      0.15875272
H      -2.25734787     -0.03926431     -1.34516712
H      -3.58819038      1.61082254      0.88504290
H      -4.48224073      0.74861321     -0.39255796
H      -2.42012718      2.63969621     -0.83814906
