11
ClC1=C(Cl)C(Cl)(Cl)C(Cl)=C1Cl
Cl      2.42418506      1.68274726      0.57259522
C       1.05668178      0.72416228      0.24919915
C      -0.18569153      1.16406860      0.01026516
Cl     -0.71509220      2.78318293     -0.03161776
C      -1.10855029     -0.00254613     -0.22973567
Cl     -2.38981399     -0.06487235      1.00118712
Cl     -1.79537309      0.05525948     -1.86852326
C      -0.16118952     -1.16486526     -0.08215316
Cl     -0.65649730     -2.78633323     -0.25263050
C       1.07186765     -0.71927334      0.19192038
Cl      2.45947343     -1.67153023      0.43949333
