44
NCCNCCNCCNCCNCCN
N       6.82322764     -1.77666437     -0.04890813
C       5.90223259     -1.79985038     -1.19130975
C       5.21132166     -0.43474994     -1.39985288
N       4.69725304      0.17418526     -0.16300398
C       3.55955467     -0.53932520      0.43580625
C       2.24904290     -0.47005233     -0.38028639
N       1.14806451     -1.10694830      0.35183140
C      -0.10182676     -1.13626041     -0.41932646
C      -0.80664746      0.23361855     -0.51227981
N      -2.07471051      0.11277535     -1.24580932
C      -2.77379649      1.40705513     -1.36409688
C      -3.43272986      1.87892712     -0.04860583
N      -4.27089748      0.81088918      0.51049591
C      -4.60749245      1.06999807      1.91551799
C      -5.47208145     -0.07097377      2.49118854
N      -6.58416605     -0.41686763      1.59670492
H       7.57055207     -1.11243915     -0.25117371
H       6.31225943     -1.32424869      0.71771874
H       6.45181129     -2.08032214     -2.09617197
H       5.15005286     -2.57638202     -1.01604683
H       5.96024874      0.25736110     -1.80455690
H       4.43144092     -0.51755370     -2.16388239
H       4.41474613      1.13475004     -0.35877975
H       3.38100607     -0.07968245      1.41627037
H       3.82383591     -1.58285122      0.64270919
H       2.38718118     -0.97318941     -1.34376268
H       2.01473566      0.58195374     -0.57476103
H       1.41216759     -2.06835203      0.57353300
H      -0.78063046     -1.83437167      0.08674320
H       0.07690046     -1.54966153     -1.41957374
H      -0.15974978      0.95454950     -1.02408501
H      -0.98754738      0.60030202      0.50428152
H      -1.88146256     -0.23410380     -2.18562731
H      -3.56530387      1.28130278     -2.11377306
H      -2.10013908      2.18143280     -1.75006213
H      -2.64743208      2.16888260      0.65914546
H      -4.04584615      2.76471198     -0.24697386
H      -3.73650902     -0.06151509      0.43258190
H      -3.70070693      1.16811947      2.52359484
H      -5.16817549      2.00989138      1.98616106
H      -4.85316990     -0.96455464      2.62945485
H      -5.86382653      0.21316563      3.47324346
H      -6.17146575     -0.48820794      0.65904441
H      -7.19132183      0.39904789      1.51668281
