42
O=C(N[C@H](C(=O)O)C1CCCCC1)OCc1ccccc1
O       0.62199341      2.15257741      1.44508994
C       0.82643750      1.22731795      0.67525587
N      -0.12758270      0.56507585     -0.03563344
C      -1.55296110      0.72862972      0.26148460
C      -1.88441793     -0.24311970      1.39294240
O      -1.39161318     -1.34863079      1.56645608
O      -2.80573603      0.23160025      2.25313288
C      -2.39495440      0.56696060     -1.02798433
C      -2.40821313     -0.84671264     -1.64248784
C      -3.49463955     -1.77402935     -1.10411191
C      -4.86849694     -1.12149025     -1.14570450
C      -4.87468016      0.19714710     -0.38669908
C      -3.81298255      1.15860983     -0.91071420
O       2.03172695      0.67788245      0.40909570
C       3.10931025      1.28746994      1.12267039
C       4.38091465      0.57052795      0.74799691
C       5.26902393      1.12645774     -0.18321390
C       6.43967226      0.45164864     -0.53437865
C       6.72984663     -0.78681680      0.03539272
C       5.84827274     -1.35463912      0.95353721
C       4.67750628     -0.68159835      1.30623529
H       0.19320040     -0.32529223     -0.39453768
H      -1.68094973      1.74581718      0.65265078
H      -2.88041738     -0.46707431      2.93649036
H      -1.88165436      1.20188148     -1.76759285
H      -1.43097283     -1.33093247     -1.54227348
H      -2.57541373     -0.73737321     -2.72303917
H      -3.26646105     -2.07862328     -0.07850985
H      -3.51194318     -2.69369836     -1.70103237
H      -5.16272985     -0.94791039     -2.18806128
H      -5.61256513     -1.79984104     -0.71328464
H      -5.86207308      0.66470353     -0.48004471
H      -4.72577065      0.00650446      0.67948538
H      -4.12501342      1.47902806     -1.91445133
H      -3.80252058      2.06735735     -0.29748170
H       2.94775677      1.20408324      2.20488315
H       3.18054085      2.35035868      0.86024428
H       5.05289959      2.08800886     -0.64362630
H       7.12375952      0.89104652     -1.25575259
H       7.64036440     -1.31208772     -0.24042539
H       6.06957509     -2.32439825      1.39181347
H       3.99196144     -1.14014875      2.01618379
