27
CCCCC(CC)CO
C       3.97929430      0.06071442      0.77981496
C       2.80413382     -0.57396009      0.05323379
C       1.48248564      0.09676018      0.43202140
C       0.30426731     -0.54325198     -0.30879114
C      -1.07784151     -0.01414928      0.14214274
C      -2.17194041     -0.84463096     -0.56693183
C      -3.58898307     -0.49920986     -0.13173292
C      -1.23262866      1.49815270     -0.08943698
O      -1.06019848      1.84462007     -1.45599507
H       3.86430688     -0.02878870      1.86475357
H       4.91300865     -0.43429694      0.49512952
H       4.06796458      1.12277368      0.52981788
H       2.76464136     -1.64152045      0.29906824
H       2.96469335     -0.49537260     -1.02832857
H       1.54497732      1.16349381      0.19065914
H       1.32610056      0.01380808      1.51419806
H       0.33608754     -1.62754966     -0.13932537
H       0.42934628     -0.39437697     -1.38878173
H      -1.17247449     -0.19278317      1.22169721
H      -2.00477306     -1.90746874     -0.35017844
H      -2.09278071     -0.73559763     -1.65506660
H      -3.88089424      0.49999050     -0.46721161
H      -4.29796185     -1.21072732     -0.56754710
H      -3.68914259     -0.54589590      0.95710351
H      -0.49166997      2.05613420      0.49083851
H      -2.21133479      1.86018105      0.24018014
H      -1.80868375      1.47295157     -1.95198827
