26
CCC1(CCO)C(=O)NC(=S)NC1=O
C      -1.62051211     -2.22249059      0.14661855
C      -0.43761277     -1.46585279      0.74091532
C      -0.11957518     -0.07858297      0.10234863
C      -1.35135437      0.86054505      0.14240300
C      -1.14814183      2.21960814     -0.53612468
O       0.05314149      2.84746486     -0.12159418
C       0.33499722     -0.31170286     -1.32984580
O      -0.43172105     -0.32469030     -2.29091018
N       1.66224315     -0.60242941     -1.50538126
C       2.64732980     -0.35614868     -0.60157085
S       4.24504927     -0.62185147     -0.97427495
N       2.27895228      0.13648511      0.61043514
C       1.00350899      0.48981877      0.96471466
O       0.80494032      1.16641929      1.97438833
H      -1.49888371     -2.38819634     -0.92719281
H      -1.70666986     -3.20458672      0.62390762
H      -2.56410033     -1.69728524      0.31751212
H       0.44345260     -2.11817819      0.66996177
H      -0.62613690     -1.33721672      1.81551669
H      -2.21864243      0.39184612     -0.33584495
H      -1.63093083      1.03779731      1.18920559
H      -1.98629492      2.88527147     -0.30477421
H      -1.11073394      2.11388882     -1.62415281
H       0.01936319      2.93951492      0.85189882
H       1.94315140     -0.82313651     -2.45287237
H       3.01518053      0.46368894      1.22355597
