57
CC(C)(c1ccc(Oc2ccc(N)cc2)cc1)c1ccc(Oc2ccc(N)cc2)cc1
C      -0.34313512     -2.31884803      2.89631727
C      -0.09457460     -1.95841404      1.40795063
C      -0.23882798     -3.28631129      0.61839464
C       1.32569847     -1.34508956      1.33939250
C       2.41670561     -2.01153650      0.75475579
C       3.68661890     -1.42482393      0.71836418
C       3.88489644     -0.15388341      1.25595850
O       5.11595709      0.46025155      1.28001841
C       5.83441093      0.47302084      0.10680934
C       7.17926956      0.11749318      0.18009820
C       7.96785141      0.13774310     -0.97325108
C       7.43745607      0.56884473     -2.19264280
N       8.19701199      0.47219156     -3.36423718
C       6.07836567      0.89008066     -2.25958498
C       5.28235367      0.87166120     -1.11084025
C       2.82861967      0.51523868      1.86462603
C       1.56136567     -0.07164186      1.89996429
C      -1.14670125     -0.98685465      0.81838607
C      -0.96753757     -0.47458988     -0.48428216
C      -1.89677893      0.39724034     -1.05691773
C      -3.03585831      0.76025091     -0.34626503
O      -3.89778873      1.64534104     -0.95204119
C      -5.24296672      1.36601385     -0.87840876
C      -5.77152689      0.11295965     -1.18918378
C      -7.15224405     -0.09296231     -1.12096679
C      -8.01695702      0.95812419     -0.80206765
N      -9.38272281      0.71519506     -0.61776401
C      -7.47066187      2.19849355     -0.46009374
C      -6.09147251      2.41288705     -0.52603953
C      -3.22751533      0.28543695      0.95049142
C      -2.29530253     -0.58704760      1.52322637
H      -1.29687778     -2.84277070      3.03207263
H       0.44392728     -2.98121871      3.27868188
H      -0.35869571     -1.43274900      3.54192046
H      -1.26872475     -3.66259967      0.66400086
H       0.40755643     -4.07254583      1.02653322
H       0.01389905     -3.16907080     -0.44209130
H       2.31062646     -3.00147361      0.32021752
H       4.51434883     -1.97060732      0.27360093
H       7.60929403     -0.19402000      1.12748772
H       9.00402481     -0.18283858     -0.90926492
H       7.87513573      1.07842801     -4.11235918
H       9.19764345      0.54861813     -3.21100997
H       5.62665011      1.16463684     -3.20895466
H       4.23733984      1.16038271     -1.17770853
H       2.98568521      1.49571211      2.30519693
H       0.74841073      0.48018706      2.36928352
H      -0.08692744     -0.74651197     -1.06398597
H      -1.73123163      0.78705838     -2.05723466
H      -5.12056173     -0.70804951     -1.47472514
H      -7.54746597     -1.08401563     -1.32625971
H      -9.96179209      1.54448075     -0.70136538
H      -9.73913495     -0.06082246     -1.16669334
H      -8.11648663      3.01274593     -0.14313372
H      -5.68060292      3.38850946     -0.28342695
H      -4.09685062      0.59033131      1.52699413
H      -2.49319869     -0.93825948      2.53205665
