17
CC(N)C(O)C(=O)O
C      -0.46006370      1.40740305      0.57583810
C      -0.81287344     -0.00945144      0.11293211
N      -1.59905634      0.11344331     -1.13632554
C       0.43058821     -0.87367953     -0.18208879
O       1.15871452     -0.31729435     -1.29789081
C       1.36034478     -0.96524277      1.02378173
O       1.02365773     -1.29847401      2.14895431
O       2.63330525     -0.62897570      0.68861527
H      -1.36663385      2.00070993      0.74209035
H       0.15570446      1.93679742     -0.15973309
H       0.08876458      1.38834936      1.52284001
H      -1.42851746     -0.48929813      0.88250039
H      -2.39969666      0.72701574     -0.96603826
H      -2.00766653     -0.79541137     -1.36656711
H       0.14728541     -1.89368238     -0.46479260
H       0.45333782      0.08705154     -1.85237058
H       2.62280521     -0.38926068     -0.27174550
