22
CC(O)CNCCN
C      -3.08005540     -0.36251382     -1.18257870
C      -1.81982688      0.38384716     -0.76916440
O      -2.11373443      1.17844647      0.38615952
C      -0.67867920     -0.59248182     -0.42562391
N       0.53335165      0.16189315     -0.07048090
C       1.57131309     -0.72819635      0.46974229
C       2.82885043      0.07279686      0.86649517
N       3.24390544      0.99793212     -0.19551720
H      -2.90244969     -0.98398554     -2.06539098
H      -3.88569848      0.34377451     -1.41020367
H      -3.44250114     -1.00079400     -0.36927673
H      -1.50695622      1.05915188     -1.57430967
H      -2.76248656      1.84950894      0.11224295
H      -0.47200199     -1.24460002     -1.28149929
H      -0.98578347     -1.21365084      0.42502162
H       0.26333223      0.84301764      0.64678944
H       1.20328028     -1.26862629      1.34957326
H       1.84805027     -1.46624021     -0.29286009
H       3.65097607     -0.61094007      1.10166685
H       2.61938248      0.65890391      1.76840799
H       2.38693776      1.47547521     -0.49756466
H       3.50079377      0.44728113     -1.01477851
