50
CCCCOC1=CC(=O)CC(C)C12Oc1c(Cl)c(OC)cc(OC)c1C2=O
C      -4.58159076      3.67614170      0.61815234
C      -4.56985449      2.16659022      0.43852681
C      -3.14572036      1.62330317      0.36787698
C      -3.12809317      0.10815635      0.18752833
O      -1.76226159     -0.30708265      0.13174673
C      -1.47675646     -1.65480910     -0.01475759
C      -2.40268852     -2.62154391     -0.14691156
C      -2.01315657     -4.02771634     -0.40373493
O      -2.88847504     -4.88539865     -0.48851598
C      -0.55574357     -4.34098670     -0.63462033
C       0.33416048     -3.45336220      0.23705649
C       1.80402068     -3.81794531     -0.00279353
C       0.02146227     -1.95893852     -0.01899486
O       0.55459892     -1.54141945     -1.30221107
C       1.38897752     -0.47626688     -1.04921607
C       2.05440372      0.24275094     -2.02885040
Cl      1.84990354     -0.18392394     -3.69074995
C       2.88852763      1.30886497     -1.64072975
O       3.52178940      1.98439744     -2.65387255
C       4.35199333      3.08601340     -2.31217982
C       3.03339458      1.62003673     -0.27050499
C       2.35951178      0.88629202      0.71553717
O       2.43580218      1.10371574      2.05746293
C       3.24141582      2.18078171      2.51579857
C       1.54787089     -0.15115338      0.28519370
C       0.73053761     -1.09334069      1.02079002
O       0.64850745     -1.17917810      2.23339155
H      -5.61122479      4.04413497      0.66653520
H      -4.07367492      3.96503987      1.54384811
H      -4.08161211      4.17464047     -0.21842289
H      -5.11257798      1.90928986     -0.47848162
H      -5.10522203      1.70078802      1.27403909
H      -2.59273563      1.88650001      1.27843674
H      -2.60003176      2.09341470     -0.46002628
H      -3.63692567     -0.15863631     -0.74615802
H      -3.62924174     -0.37089949      1.03683671
H      -3.47057011     -2.44858185     -0.12983942
H      -0.34005744     -4.21075297     -1.70120758
H      -0.39034383     -5.39398289     -0.37809774
H       0.10736242     -3.68035639      1.28916453
H       2.46950966     -3.22652989      0.63365207
H       2.09656058     -3.65897322     -1.04593966
H       1.97978025     -4.87329384      0.23302709
H       5.19981811      2.76453221     -1.69862394
H       3.77739355      3.87389766     -1.81433743
H       4.75300156      3.50318310     -3.24089100
H       3.67861008      2.43818325      0.02572660
H       4.29284392      2.02509149      2.25297798
H       3.17132716      2.21094386      3.60732931
H       2.87547345      3.13838878      2.13114555
