43
CCN(CC)CCSCCN(CC)CC
C      -3.87278152      0.09684186     -2.88380104
C      -3.45127416     -0.75047177     -1.68674750
N      -3.46528974      0.02398191     -0.42898447
C      -4.84548897      0.16624453      0.07685660
C      -4.98109259      1.34217176      1.04027296
C      -2.60342161     -0.62873045      0.58763808
C      -1.11563866     -0.30149190      0.37203926
S      -0.09853768     -1.08966148      1.67148258
C       1.49985075     -0.26090379      1.34967800
C       2.17049886     -0.74704390      0.05312974
N       3.48221873     -0.14592665     -0.27633362
C       3.34783637      1.28867010     -0.58392000
C       4.53007278      1.83867690     -1.37585020
C       4.52687860     -0.39816820      0.72994113
C       4.77767445     -1.87838875      1.00495605
H      -3.75395521     -0.48000554     -3.80713924
H      -3.24948111      0.99349002     -2.96826011
H      -4.91899824      0.40942091     -2.82594468
H      -2.43979680     -1.10869303     -1.90759285
H      -4.08513192     -1.64302505     -1.61003443
H      -5.19042545     -0.75964507      0.55435513
H      -5.54009149      0.36632314     -0.74614148
H      -6.03229435      1.47601875      1.31684687
H      -4.63798520      2.27203695      0.57414158
H      -4.41635543      1.19260469      1.96455351
H      -2.86845484     -0.27171233      1.58960696
H      -2.77242247     -1.71414088      0.59041777
H      -0.96711067      0.78283555      0.41422484
H      -0.77063816     -0.66394868     -0.59891974
H       2.13752591     -0.48146059      2.21100530
H       1.33229834      0.82036875      1.33638164
H       2.27851125     -1.83825078      0.08153666
H       1.50366911     -0.56487741     -0.79874976
H       2.45712049      1.44687730     -1.20532142
H       3.20837085      1.88134913      0.32826610
H       5.44491352      1.87527409     -0.77755552
H       4.31394264      2.86118311     -1.70339821
H       4.72177059      1.23534685     -2.26940968
H       5.47921289      0.00847975      0.37259022
H       4.30333638      0.11462259      1.67299769
H       4.95894294     -2.42800279      0.07538100
H       5.66315690     -1.99352759      1.63914944
H       3.93886390     -2.34474199      1.53024475
