26
COc1ccc(NC(=O)C2CC2)cn1
C       5.07758128      0.33177538      0.32050988
O       4.38586802     -0.32563979     -0.73669368
C       3.01650672     -0.32749059     -0.56352091
C       2.27417183     -0.95026716     -1.55226847
C       0.88626792     -0.97881286     -1.42338012
C       0.27856686     -0.38707819     -0.31433385
N      -1.12661605     -0.44120058     -0.22996065
C      -1.91025730      0.07534971      0.77623933
O      -1.54068186      0.65221539      1.78663418
C      -3.36511374     -0.15827699      0.55958197
C      -4.31785615      1.01490109      0.58022789
C      -4.05504724      0.29307568     -0.70781379
C       1.11570580      0.21356136      0.62306270
N       2.46999092      0.25557619      0.52155713
H       4.79878910      1.38960432      0.38059158
H       6.14803947      0.28303220      0.09827760
H       4.91388158     -0.17474665      1.27809891
H       2.76738192     -1.40338106     -2.40461841
H       0.29829640     -1.46573573     -2.19557257
H      -1.61247503     -0.90707670     -0.98507663
H      -3.72797318     -1.06421747      1.03554606
H      -3.90105058      2.00855177      0.70815701
H      -5.27844597      0.87542388      1.06264343
H      -3.48507233      0.82355372     -1.46255390
H      -4.84628460     -0.33196655     -1.10599714
H       0.73582624      0.69926963      1.51587734
