32
Cn1nc(S(N)(=O)=O)sc1=NS(=O)(=O)c1cccc([N+](=O)[O-])c1
C       2.32032767     -1.81910692      0.98967528
N       2.35889973     -0.54649754      0.29177243
N       3.60072838      0.05644703      0.25599199
C       3.49271085      1.23292477     -0.29315461
S       4.91595282      2.27457137     -0.50458777
N       6.26608274      1.50383020      0.16665721
O       4.71126479      3.45730436      0.30308765
O       5.18681883      2.34911594     -1.92393946
S       1.88820253      1.72316224     -0.80271143
C       1.27872129      0.16213135     -0.20580505
N       0.01777366      0.02419152     -0.35683020
S      -0.75529737     -1.30811534      0.07549247
O      -0.35464100     -2.39443716     -0.79596126
O      -0.70805573     -1.46342373      1.51496206
C      -2.45446042     -0.92855089     -0.31292471
C      -3.14701297     -1.68617699     -1.26368428
C      -4.47760101     -1.37978845     -1.55427025
C      -5.11358368     -0.32323692     -0.89728064
C      -4.40993192      0.42812056      0.05650191
N      -5.08126100      1.53766025      0.74597329
O      -6.27610371      1.73846808      0.48717155
O      -4.41130556      2.20710595      1.54449488
C      -3.07550274      0.13130095      0.35720979
H       3.33253876     -2.16556034      1.23036105
H       1.86551739     -2.59698952      0.37359439
H       1.78215045     -1.72457405      1.93621505
H       6.93372448      1.28325296     -0.57431784
H       6.66913260      2.09941753      0.89214124
H      -2.66204974     -2.51205899     -1.78156886
H      -5.02068389     -1.96543097     -2.29386168
H      -6.15173512     -0.09976309     -1.13798099
H      -2.52132110      0.70470582      1.09830738
