26
CC[C@@H](C(N)=O)N1CCCC1=O
C      -2.27067969     -1.88771757     -1.52095466
C      -1.40071703     -1.43965668     -0.35379171
C      -0.41454054     -0.33497431     -0.75397223
C      -1.12352187      1.00918490     -1.02318339
N      -0.43241373      1.86507396     -1.83894715
O      -2.18545209      1.35075038     -0.51220270
N       0.61306900     -0.10702966      0.27393286
C       0.29978141      0.07310662      1.67257982
C       1.66877832      0.19075311      2.31362450
C       2.50356629      0.89399417      1.25126372
C       1.82534928      0.49983684     -0.03770460
O       2.23045888      0.75500070     -1.16146990
H      -2.89088375     -1.06804021     -1.89602707
H      -2.93754783     -2.69605182     -1.20446620
H      -1.65650954     -2.26051515     -2.34687767
H      -0.84416971     -2.30988288      0.01585256
H      -2.05033366     -1.10832438      0.46514860
H       0.10352931     -0.63135522     -1.67539957
H      -0.78608022      2.80772908     -1.92618502
H       0.56474125      1.71691661     -1.98945379
H      -0.26179062     -0.77733877      2.06663211
H      -0.27758115      0.99583813      1.79312044
H       2.08120888     -0.80905162      2.49886368
H       1.64864608      0.72828335      3.26568170
H       3.54417879      0.56191564      1.26493406
H       2.44891393      1.98155479      1.35900161
