17
Cc1cccc([N+](=O)[O-])c1
C      -2.38296265     -0.85576945     -0.25332044
C      -1.06078322     -0.15528398     -0.13453624
C      -1.00225723      1.24442328     -0.08581317
C       0.22134687      1.90384320      0.05588328
C       1.40362145      1.17157979      0.16149019
C       1.35027307     -0.22748716      0.12844921
N       2.59030573     -1.00444006      0.24735214
O       3.65348936     -0.37947227      0.37286118
O       2.50313364     -2.24056886      0.21545601
C       0.12421451     -0.89374644     -0.01372314
H      -2.27404867     -1.80730879     -0.78425125
H      -3.09737633     -0.24855309     -0.81906944
H      -2.79371197     -1.05013604      0.74215400
H      -1.91539101      1.83303707     -0.15944302
H       0.25047489      2.99085885      0.08657737
H       2.34779081      1.70055642      0.27197800
H       0.08188076     -1.98153248     -0.03204468
