13
C[C](C)C
C       1.31167564     -0.46120207      0.51609624
C      -0.06405996      0.01057397      0.17818270
C      -0.26380965      1.45022326     -0.16374780
C      -1.06420063     -0.98632477     -0.30691390
H       1.90122012     -0.60133956     -0.39486543
H       1.27553711     -1.41173969      1.05717543
H       1.82567824      0.26299427      1.15557627
H       0.31690980      2.09347829      0.50451996
H       0.04999754      1.64461553     -1.19369373
H      -1.31612434      1.73254226     -0.06116092
H      -0.99973280     -1.91462464      0.26901715
H      -2.08262292     -0.60082805     -0.19827227
H      -0.89046816     -1.21836881     -1.36191371
