60
COc1cc2c(N)nc(N3CCN(C(=O)OCC(C)(C)O)CC3)nc2c(OC)c1OC
C      -7.35901988      0.72439595      2.41037429
O      -6.99978199      0.67106187      1.03582488
C      -5.70742655      0.34291656      0.72619636
C      -4.70245414      0.12580545      1.66823228
C      -3.38881540     -0.25189019      1.27603498
C      -2.34132292     -0.50188845      2.16231170
N      -2.49559912     -0.35948238      3.54846519
N      -1.12413726     -0.89946116      1.77675635
C      -0.90086801     -1.04802227      0.46307219
N       0.35258384     -1.48647812      0.02922033
C       0.69278300     -1.01894125     -1.33424910
C       2.05184997     -1.58509698     -1.79336929
N       3.07841224     -1.36067052     -0.78017118
C       3.79851830     -0.17679403     -0.84011793
O       3.71726556      0.62672307     -1.75725364
O       4.57787773      0.00541746      0.26024711
C       5.36056309      1.20670394      0.30540789
C       6.84878221      0.94053464      0.00782371
C       7.06590288      0.31849908     -1.37328266
C       7.46654998      0.04635306      1.08075798
O       7.54976752      2.19277038      0.05261914
C       2.74154395     -1.97073688      0.50558279
C       1.42075606     -1.37962315      1.04180016
N      -1.84091749     -0.80413775     -0.45622573
C      -3.07219547     -0.42620877     -0.06909129
C      -4.08409711     -0.18514136     -1.00694371
O      -3.82727269     -0.40909951     -2.34795736
C      -3.29927135      0.77124412     -2.95117340
C      -5.38492778      0.20399653     -0.63055230
O      -6.29722222      0.36243256     -1.64626195
C      -6.96407574      1.61969363     -1.62782809
H      -7.22316128     -0.24767863      2.89272072
H      -6.80334362      1.50923916      2.93343595
H      -8.42121214      0.97901468      2.46831532
H      -4.90983927      0.21413018      2.73022348
H      -1.59288944     -0.57890126      3.96396340
H      -2.78580729      0.58190311      3.79228808
H      -0.05913271     -1.34487000     -2.06363661
H       0.73579214      0.07908406     -1.34945090
H       2.34663087     -1.13416645     -2.74668378
H       1.97545666     -2.66785170     -1.94962129
H       4.97086818      1.98996881     -0.35627294
H       5.26099033      1.61578919      1.31955744
H       6.64587832     -0.68854374     -1.44490833
H       8.13542657      0.25914679     -1.60337502
H       6.61874318      0.93863367     -2.15657023
H       7.33422515      0.48836544      2.07384560
H       7.02869835     -0.95549363      1.08613394
H       8.54693101     -0.05112756      0.93000710
H       7.28988139      2.70473304     -0.73449269
H       2.63211864     -3.04908368      0.34168247
H       3.54131448     -1.82963477      1.23921867
H       1.15396379     -1.93051158      1.95219946
H       1.57897085     -0.32579005      1.30807960
H      -3.26183496      0.60318788     -4.03299260
H      -3.93941227      1.64254372     -2.77437982
H      -2.28176108      0.97111553     -2.60231095
H      -7.95235379      1.51268763     -1.17207024
H      -7.10731310      1.93781831     -2.66351974
H      -6.39158018      2.40146054     -1.11763578
