28
Cc1nc2c(=O)n(C)c(=O)n(C)c2nc1C
C      -3.50031727     -1.50114095      0.13702161
C      -2.18604236     -0.78164006      0.10840646
N      -1.08510780     -1.54057177     -0.10804593
C       0.10563128     -0.88053642     -0.13301308
C       1.33070452     -1.66669128     -0.36957574
O       1.25934682     -2.87241085     -0.60003911
N       2.53448256     -0.96649970     -0.32604829
C       3.75853349     -1.71591766     -0.54845056
C       2.64949673      0.41446339     -0.20202987
O       3.74183402      0.98007561     -0.27737474
N       1.47658916      1.11524873      0.00323973
C       1.50562966      2.56034650      0.16865767
C       0.21870802      0.48451506      0.04853437
N      -0.88790439      1.24142311      0.26437421
C      -2.08859388      0.60068974      0.29369088
C      -3.29561192      1.45663377      0.53391536
H      -3.35889923     -2.57441472     -0.02821127
H      -4.15938624     -1.12484406     -0.65123265
H      -3.98521782     -1.37298590      1.10952490
H       3.63300205     -2.77663771     -0.31411419
H       4.56850770     -1.31581995      0.06952221
H       4.03717267     -1.61361302     -1.60214481
H       0.92467963      3.02932513     -0.63224759
H       1.08179226      2.82405758      1.14320626
H       2.52484002      2.95413824      0.12497817
H      -3.81066329      1.14372687      1.44721500
H      -3.00852974      2.50658489      0.65389950
H      -3.98467666      1.39249544     -0.31365849
