59
CCCCCCC(C/C=C\CCCCCCCC(=O)O)OS(=O)(=O)O
C      -8.56350058      1.45420757      0.11112492
C      -7.79791786      0.53779265     -0.83061653
C      -6.52573285     -0.04671300     -0.21259955
C      -5.45630314      1.00782083      0.07892292
C      -4.17062989      0.36500354      0.60531943
C      -3.09211804      1.42251289      0.86806185
C      -1.82318838      0.80993010      1.48230320
C      -0.79132923      1.88035474      1.89200288
C      -0.29025888      2.73347698      0.75486141
C       0.90585391      2.66649295      0.14752633
C       2.02686992      1.70624419      0.43234068
C       2.37833764      0.87981334     -0.80744695
C       3.47710047     -0.13934711     -0.49533933
C       3.84417696     -0.96295972     -1.73201268
C       4.84343652     -2.08524045     -1.43673315
C       6.22106038     -1.57638236     -1.00747077
C       7.20129080     -2.73140879     -0.80698652
C       8.56165951     -2.23773859     -0.39404578
O       8.93359052     -1.08108087     -0.29225718
O       9.40689159     -3.25553515     -0.13484905
O      -1.24818274     -0.08910406      0.53650149
S      -0.54714402     -1.45136864      1.06534690
O       0.22377408     -2.00767803     -0.02463467
O       0.01950303     -1.23391519      2.37470342
O      -1.81403527     -2.43015623      1.23406738
H      -7.99220510      2.35689606      0.34486908
H      -8.80258712      0.94256382      1.04920012
H      -9.50380008      1.76871862     -0.35240033
H      -8.45515991     -0.29107334     -1.12047739
H      -7.55063782      1.08305173     -1.74912254
H      -6.77787756     -0.58592328      0.70895480
H      -6.11570310     -0.78751816     -0.91020088
H      -5.23762844      1.57181747     -0.83616786
H      -5.82698109      1.72300205      0.82145586
H      -4.38819290     -0.17934895      1.53213453
H      -3.80238063     -0.36765512     -0.12290659
H      -2.85315300      1.90807786     -0.08593771
H      -3.49103849      2.19005549      1.54259521
H      -2.12293778      0.26079252      2.38476267
H      -1.24352476      2.54726859      2.63752839
H       0.04803241      1.39926137      2.40220063
H      -0.98281203      3.50041385      0.40878925
H       1.10445704      3.38249240     -0.64996177
H       2.90377003      2.28352850      0.74871623
H       1.78245624      1.03103438      1.25625974
H       2.71212768      1.54422647     -1.61423090
H       1.48571237      0.35710899     -1.17268266
H       4.36019793      0.39156287     -0.12213972
H       3.13748720     -0.80920726      0.30389400
H       2.93439690     -1.41634795     -2.14445896
H       4.24946778     -0.30402912     -2.50932317
H       4.95379811     -2.69307428     -2.34367880
H       4.43440313     -2.74580444     -0.66265652
H       6.14159370     -1.00876827     -0.07275882
H       6.61216943     -0.88613798     -1.76542516
H       6.82565745     -3.40165587     -0.02519926
H       7.31182453     -3.29656845     -1.73979034
H      10.24635175     -2.81121134      0.10083211
H      -2.02048834     -2.79257085      0.34923610
