55
C[C@]12C[C@H](O)[C@H]3[C@@H](CCC4=CC(=O)CC[C@@]43C)[C@@H]1CC[C@@H]2C(=O)CO
C       1.96393415      1.80801678     -0.12031390
C       1.86799061      0.25915979     -0.13938919
C       1.27747594     -0.24682515     -1.46801170
C      -0.21835176      0.10083553     -1.63123194
O      -0.35521157      1.49140169     -1.88659106
C      -1.08462282     -0.32943100     -0.40791976
C      -0.46520289      0.13255994      0.95169821
C      -1.24946058     -0.47046942      2.12791738
C      -2.72814114     -0.11844804      2.06258172
C      -3.34201794     -0.51325125      0.74140764
C      -4.47433683     -1.23866686      0.72090735
C      -5.19159769     -1.52408286     -0.54271497
O      -6.19447701     -2.23326980     -0.52222191
C      -4.70360760     -0.85119544     -1.79798984
C      -3.18654764     -0.73715615     -1.77767049
C      -2.62887590     -0.00384983     -0.52129307
C      -2.94044995      1.50477887     -0.64252108
C       1.00273521     -0.31453623      1.00330460
C       1.82623946     -0.01843557      2.25219957
C       3.28205821     -0.19915908      1.78386833
C       3.22945395     -0.37763887      0.24780877
C       4.45974246      0.14521461     -0.48707490
O       4.38971332      0.71068801     -1.58189486
C       5.82511304     -0.14513868      0.12983563
O       6.87736223      0.10674832     -0.79037027
H       0.99229719      2.29453847     -0.01377866
H       2.40683932      2.18665265     -1.04757876
H       2.58427868      2.17995059      0.70148527
H       1.84768575      0.16561433     -2.30874696
H       1.38242185     -1.33818242     -1.52257763
H      -0.57885980     -0.41797109     -2.52624015
H       0.22555479      1.71619571     -2.63499487
H      -1.01367791     -1.43029205     -0.39311390
H      -0.52439056      1.22254414      1.03540962
H      -1.13431479     -1.56233183      2.13630014
H      -0.84375929     -0.10282783      3.07772055
H      -3.24334870     -0.60390875      2.90040932
H      -2.85588511      0.96115730      2.20826422
H      -4.96118172     -1.59816546      1.62075243
H      -5.18459162      0.12817777     -1.88359471
H      -5.00717564     -1.45783729     -2.65825358
H      -2.77186222     -1.75416126     -1.82147109
H      -2.86192284     -0.23155694     -2.69513768
H      -4.00251486      1.71177379     -0.46178473
H      -2.72210959      1.88858561     -1.64386756
H      -2.37414592      2.10441311      0.07669358
H       0.99190926     -1.41364482      0.90542142
H       1.66160611      1.00415187      2.60904238
H       1.58811400     -0.70021123      3.07467855
H       3.88055318      0.66706848      2.08664897
H       3.73197876     -1.08232891      2.25171671
H       3.19995370     -1.45573780      0.03195152
H       5.97355724      0.49443672      1.00252315
H       5.87531842     -1.19692918      0.42217692
H       6.49875505      0.68297700     -1.48635106
