37
O=C(O)c1ccccc1C(=O)c1ccc(-c2ccccc2)cc1
O       5.34257441     -0.15829995     -2.21115342
C       4.29839559     -0.23917998     -1.59280027
O       3.11249025     -0.38181821     -2.20884463
C       4.16768599     -0.33832306     -0.12779436
C       5.12946822     -1.09527995      0.55566538
C       5.04229148     -1.25629038      1.94025234
C       4.00377313     -0.65401794      2.65084726
C       3.05310662      0.11775846      1.98081645
C       3.13217043      0.27161578      0.58878924
C       2.16891277      1.17219527     -0.07156982
O       2.59926924      2.20003071     -0.58613235
C       0.71266552      0.86327789     -0.07643252
C       0.22236591     -0.42081937      0.17986311
C      -1.15690641     -0.66051343      0.16319856
C      -2.07228639      0.36884702     -0.11336319
C      -3.52174538      0.11125863     -0.12837955
C      -4.40239095      0.88427984      0.64687543
C      -5.77841500      0.63987477      0.63443090
C      -6.29785815     -0.38225661     -0.15562809
C      -5.44311882     -1.15972017     -0.93264016
C      -4.06720922     -0.91474944     -0.91825415
C      -1.56233942      1.64947008     -0.38057706
C      -0.18537213      1.89502977     -0.36699669
H       3.32400030     -0.27076119     -3.15980134
H       5.94639388     -1.56327043      0.00887279
H       5.79090035     -1.84560393      2.46557222
H       3.94696857     -0.76981644      3.73112176
H       2.27087060      0.61591537      2.54961924
H       0.89042464     -1.25390541      0.37974418
H      -1.51738206     -1.66590971      0.37507644
H      -4.01758022      1.68188437      1.27928583
H      -6.44247813      1.24773793      1.24342720
H      -7.36795552     -0.57190168     -0.16676406
H      -5.84562857     -1.95544570     -1.55404431
H      -3.41956930     -1.52630849     -1.54333209
H      -2.23827345      2.46901940     -0.61860304
H       0.18178121      2.89599620     -0.58665201
