24
CN(C)C(=O)Nc1ccc(Cl)c(Cl)c1
C      -2.79608779      1.27868579      0.31658784
N      -2.45815308      0.00727907     -0.31127188
C      -3.57789614     -0.89702018     -0.51795461
C      -1.18554624     -0.56928321     -0.26068889
O      -1.02574534     -1.78577053     -0.31339065
N      -0.16045612      0.34858249     -0.18668306
C       1.20674900      0.08473655      0.03320831
C       1.69257857     -1.13943107      0.49708364
C       3.06322307     -1.32649404      0.70864395
C       3.96199505     -0.28708172      0.46580361
Cl      5.63895460     -0.58543838      0.74963630
C       3.48304657      0.94498650      0.01273207
Cl      4.52821407      2.28539119     -0.30358121
C       2.11065127      1.12855782     -0.19843381
H      -3.51532045      1.80489665     -0.31764466
H      -1.93110570      1.92240430      0.48157319
H      -3.25159094      1.07262376      1.29051261
H      -3.29574810     -1.72869708     -1.17042800
H      -4.40336277     -0.35187942     -0.98490470
H      -3.89603212     -1.29470765      0.45054498
H      -0.38681750      1.25486983     -0.56629185
H       1.02561442     -1.97052932      0.71151491
H       3.41760414     -2.29067716      1.06611397
H       1.75523153      2.09399580     -0.54951622
