49
COc1ccc2c(c1OC)C(=O)O[C@@H]2[C@H]1c2cc3c(cc2CCN1C)OCO3
C       4.72725260     -0.21158249     -2.64332420
O       4.65401109     -0.11425963     -1.22760970
C       3.41634406      0.09073370     -0.67372023
C       2.25966322      0.41862212     -1.40450129
C       1.02904237      0.60349042     -0.76123315
C       0.96794961      0.45126903      0.61431004
C       2.10676783      0.15229224      1.33646396
C       3.33839129     -0.02321082      0.72484504
O       4.43558075     -0.38592893      1.45701620
C       5.18739298      0.76722771      1.83214349
C       1.75952757      0.09844436      2.75293902
O       2.49352024     -0.10799683      3.69797556
O       0.42101634      0.37125249      2.84348107
C      -0.18672369      0.57674119      1.54252321
C      -1.38938280     -0.41497704      1.32803238
C      -2.32355903      0.14764716      0.23987101
C      -2.95285686      1.39379137      0.43459196
C      -3.74975967      1.89561254     -0.57281908
C      -3.95331152      1.21130822     -1.74462979
C      -3.38530965     -0.02210585     -1.96835679
C      -2.58110646     -0.57026337     -0.95579716
C      -1.98066634     -1.93642222     -1.12997339
C      -1.81699963     -2.60025402      0.23512219
N      -0.91818370     -1.81705798      1.09218762
C      -0.71423991     -2.54029065      2.35350746
O      -4.76482642      1.88212238     -2.60440107
C      -5.05675725      3.06618195     -1.83333547
O      -4.40853427      3.08470865     -0.54408103
H       4.50249330      0.75103525     -3.11376933
H       5.75528689     -0.47782539     -2.90731951
H       4.07083282     -1.00146643     -3.02351460
H       2.28591344      0.53609875     -2.48357045
H       0.14487416      0.85333641     -1.34098299
H       6.01609458      0.43548585      2.46474036
H       4.57997556      1.47122134      2.41157806
H       5.61084803      1.26746135      0.95469447
H      -0.52383880      1.61920878      1.54423227
H      -1.99891895     -0.41778711      2.24389196
H      -2.82637069      1.96367888      1.34980585
H      -3.57497887     -0.55402827     -2.89463183
H      -2.63474934     -2.56100538     -1.74979981
H      -1.01531639     -1.84793873     -1.64239286
H      -2.79633873     -2.73550215      0.71482414
H      -1.39419395     -3.59939774      0.07134393
H      -1.64734617     -2.65000028      2.91815346
H       0.01792966     -2.04952553      2.99685802
H      -0.31564149     -3.54254667      2.15770896
H      -6.14063394      3.12812450     -1.68196510
H      -4.73016383      3.94427690     -2.40226064
