23
CCCCCCC(=O)O
C       3.53147443     -0.25968954      0.42913793
C       2.20879495      0.09826743     -0.23160008
C       1.14536740      0.45442887      0.80788830
C      -0.17232598      0.93601404      0.19275936
C      -0.90861481     -0.15213333     -0.59564256
C      -2.25041756      0.33248595     -1.13934558
C      -3.26475678      0.56302502     -0.05511347
O      -3.72919034      1.63961379      0.27989630
O      -3.65676719     -0.57401982      0.54880229
H       4.27740686     -0.51485960     -0.33009722
H       3.41645713     -1.12047879      1.09560066
H       3.91770326      0.58027402      1.01533349
H       2.36419992      0.94396391     -0.91127959
H       1.87998728     -0.75236374     -0.83779931
H       0.95476675     -0.41038237      1.45506702
H       1.53123418      1.25255987      1.45442714
H      -0.81321762      1.29191012      1.00831781
H       0.01936454      1.79852129     -0.45708788
H      -1.05371270     -1.03282483      0.04118762
H      -0.29466474     -0.46757696     -1.44644754
H      -2.66732486     -0.40314867     -1.83694445
H      -2.12594857      1.26413285     -1.70301071
H      -4.30981553     -0.27538288      1.21595047
