22
Clc1cc(Cl)c(-c2c(Cl)cc(Cl)c(Cl)c2Cl)cc1Cl
Cl     -5.25611463      0.22577149     -0.44947154
C      -3.54080591      0.13523237     -0.26739966
C      -2.75171734      0.52093080     -1.35271860
C      -1.35832820      0.46696432     -1.26031186
Cl     -0.44112500      0.95817318     -2.64266506
C      -0.72764699      0.02683733     -0.08041985
C       0.74383030     -0.04403350      0.05236488
C       1.44283446     -1.21501062     -0.30337461
Cl      0.62037506     -2.62314849     -0.88746096
C       2.83202321     -1.28889274     -0.19740721
C       3.55834598     -0.19333773      0.26801216
Cl      5.27609676     -0.37591028      0.36730096
C       2.90100942      0.98828794      0.63516612
Cl      3.81607678      2.34523417      1.21975558
C       1.49711001      1.05894927      0.52696560
Cl      0.65909087      2.51968431      0.98471936
C      -1.53918085     -0.35833769      1.00308806
C      -2.93489483     -0.30540894      0.91287909
Cl     -3.84605064     -0.79901518      2.29462257
H      -3.22221221      0.86388661     -2.27155771
H       3.35014403     -2.20357336     -0.48024961
H      -1.07886027     -0.70328328      1.92816229
