15
O=P(O)(O)C(Cl)(Cl)P(=O)(O)O
O      -1.48202442      0.78726122      1.67944810
P      -1.46079978     -0.11701568      0.48782377
O      -2.47579030     -1.34816816      0.72117406
O      -2.19672112      0.59116779     -0.75473422
C       0.11700514     -0.78769850     -0.08206092
Cl      0.72046896     -1.92034625      1.18759442
Cl     -0.17295397     -1.76561702     -1.57158434
P       1.41743078      0.40898867     -0.45740862
O       1.14196314      1.50210212     -1.44095051
O       1.95545824      1.03305213      0.92394069
O       2.73616327     -0.40469898     -0.90378420
H      -3.26557561     -1.10242162      1.23794403
H      -2.95721698      1.14441034     -0.49476454
H       2.51654913      1.82220643      0.80382215
H       3.40604353      0.15677752     -1.33645987
