31
O=C(O)CCC(C(=O)O)N(CC(=O)O)CC(=O)O
O       3.12798142      0.45262060     -1.05338225
C       2.98532775      0.12833276      0.11317076
O       3.76592457      0.66417269      1.07206269
C       2.01327441     -0.87251125      0.67554056
C       1.08390610     -1.47436770     -0.38378710
C       0.12485950     -0.46782256     -1.06355968
C      -0.84700204     -1.12939111     -2.06033367
O      -1.86522746     -0.63124677     -2.51931201
O      -0.46082092     -2.34948720     -2.48077152
N      -0.54693619      0.43342354     -0.07300531
C      -1.79947285     -0.09316153      0.53345385
C      -1.62782318     -1.41026561      1.26337290
O      -1.96543880     -2.50769756      0.84492877
O      -1.02443454     -1.29393187      2.46215586
C      -0.81184260      1.76387196     -0.68888762
C      -1.05618560      2.85589693      0.35005976
O      -0.92810179      2.79789587      1.56176779
O      -1.44718437      4.01488597     -0.22579692
H       4.34381085      1.29234869      0.59157404
H       2.60119520     -1.68387426      1.12041164
H       1.43916039     -0.39332034      1.47418871
H       0.52402734     -2.29833051      0.06952245
H       1.70560072     -1.94038618     -1.16085085
H       0.76657256      0.14631680     -1.70808341
H      -1.17726415     -2.63181418     -3.08721835
H      -2.60237180     -0.21596468     -0.20152033
H      -2.19510015      0.60778670      1.27794433
H      -0.97208655     -2.21018566      2.80219793
H      -1.67073726      1.72131179     -1.36750564
H       0.06850331      2.09983376     -1.25009509
H      -1.55211392      4.62506092      0.53452786
