45
CCN(C(=O)CNC)C1CC(C)S(=O)(=O)c2sc(S(N)(=O)=O)cc21
C       1.34517462     -0.71459336      2.84310301
C       0.62560414      0.08919855      1.76546247
N       1.01911980     -0.31435569      0.40619065
C       2.19378311      0.11009670     -0.21722206
O       2.50732412     -0.27434099     -1.35386878
C       3.10131853      1.12972265      0.49257848
N       2.89842609      2.44884868     -0.13645631
C       3.82057360      3.42852933      0.42224533
C       0.08906547     -1.13851189     -0.38652630
C      -0.20501697     -2.50072443      0.28926206
C      -1.21397164     -3.35809853     -0.49916762
C      -1.27714867     -4.78147193      0.04300404
S      -2.85532784     -2.60616880     -0.44399689
O      -3.62212755     -3.04041878     -1.59090179
O      -3.35556418     -2.62789836      0.91307971
C      -2.41451961     -0.91594123     -0.74417601
S      -3.65197298      0.18154750     -1.11701625
C      -2.53426757      1.46722672     -1.29423608
S      -3.21712321      3.03163671     -1.76051121
N      -1.93627216      4.11406092     -1.89311670
O      -4.00951699      3.49207300     -0.64456399
O      -3.73491216      2.87254499     -3.09746661
C      -1.23923233      1.05408168     -1.04567317
C      -1.15921119     -0.33840037     -0.70129036
H       1.04657041     -0.36601928      3.83746864
H       1.10443178     -1.77912120      2.77460940
H       2.43265595     -0.62532457      2.76363699
H       0.82900460      1.15710503      1.89275865
H      -0.45630864     -0.03198535      1.88845870
H       2.92256477      1.18378503      1.56678371
H       4.13507339      0.78245831      0.35594361
H       3.08969431      2.34339226     -1.13813691
H       4.86425886      3.10969411      0.31716543
H       3.70165677      4.38195834     -0.10132840
H       3.61033692      3.60240582      1.48216003
H       0.53925853     -1.36912752     -1.36016992
H       0.74211518     -3.04471331      0.39042733
H      -0.58934715     -2.35219498      1.30491029
H      -0.92616239     -3.39462868     -1.55711294
H      -1.55896956     -4.79584067      1.10145509
H      -2.01582274     -5.37637091     -0.50498282
H      -0.30581907     -5.27564952     -0.05554023
H      -1.86946465      4.43430163     -2.86273305
H      -2.08242775      4.88194115     -1.23348195
H      -0.38750392      1.72529128     -1.11102725
