24
OCC1(O)OCC(O)C(O)C1O
O       1.81837987     -0.43730155     -2.29850824
C       2.15999678     -0.65265161     -0.92986796
C       0.92709807     -0.54149654     -0.00132782
O       1.29858195     -0.89334597      1.33519263
O      -0.03893598     -1.47702087     -0.48431039
C      -1.29052615     -1.44873555      0.21208006
C      -1.93213495     -0.06300165      0.21402345
O      -2.30264629      0.30104816     -1.12293520
C      -0.95281760      0.97035484      0.76020393
O      -1.52368141      2.28268292      0.61023598
C       0.38415089      0.90741329      0.01457964
O       1.29054813      1.80713618      0.68686141
H       1.01044608     -0.96352136     -2.46278832
H       2.94344896      0.05592978     -0.64220741
H       2.59446017     -1.65646025     -0.86016150
H       1.78278606     -1.73502756      1.26047716
H      -1.94630786     -2.16106921     -0.29932889
H      -1.13727073     -1.81137564      1.23472711
H      -2.85525584     -0.06790072      0.80345485
H      -2.51858541      1.25519482     -1.07399517
H      -0.79829428      0.81619034      1.83490051
H      -0.77938949      2.90486643      0.74394017
H       0.24749117      1.29062268     -1.00331038
H       1.61845785      1.31746904      1.46806439
