63
CC(=O)OC(C)(C)C1CC=C(C)CC1.CC12CCC(CC1)C(C)(C)O2
C      -3.28579977      2.56384903      0.38090089
C      -2.49200623      1.50324736     -0.31966385
O      -2.15290247      1.56640511     -1.49124681
O      -2.22103646      0.49220584      0.54662200
C      -1.44822534     -0.67646166      0.13309387
C      -2.15702212     -1.39097140     -1.03140559
C      -1.52400540     -1.60642676      1.35961025
C       0.01989303     -0.27105451     -0.21712092
C       0.89699155     -1.45196955     -0.68535271
C       2.35201088     -1.09942109     -0.82200418
C       2.90133335      0.02055903     -0.32059789
C       4.35123979      0.35600366     -0.51788820
C       2.09362610      1.01909445      0.46959809
C       0.73267817      0.48002291      0.92402534
C      -2.04239695     -0.70061862     -1.76719959
C      -1.10237495     -0.19452344     -0.67809442
C      -1.04303409      1.34508992     -0.66979775
C      -0.09547441      1.82008707      0.43777462
C       0.56980509      0.59269608      1.08968009
C      -0.56450055     -0.19140865      1.77716959
C      -1.52515385     -0.72165228      0.70657549
C       1.21670459     -0.29370302     -0.01500493
C       2.31153474      0.45431053     -0.79074359
C       1.83849924     -1.57505458      0.56072102
O       0.21610260     -0.69882563     -0.97353613
H      -3.50662303      3.37408122     -0.31988597
H      -2.70603201      2.97139923      1.21289772
H      -4.23032844      2.14542194      0.73747421
H      -3.23426471     -1.46711031     -0.84418867
H      -1.76454222     -2.40172245     -1.18517632
H      -2.03785311     -0.84844331     -1.97422396
H      -0.99745542     -2.55197413      1.20484699
H      -1.12372033     -1.12300677      2.25679285
H      -2.56939858     -1.84259914      1.59492012
H      -0.02618780      0.43439723     -1.05805746
H       0.53904639     -1.80268174     -1.66033041
H       0.82796284     -2.29740275      0.00655395
H       2.96698915     -1.80759147     -1.37326712
H       4.45093061      1.31630537     -1.03416339
H       4.87136764     -0.39984261     -1.11571257
H       4.86025962      0.42548296      0.44886596
H       2.65448356      1.33212582      1.35840840
H       1.94376770      1.91304411     -0.14846068
H       0.12544077      1.31741679      1.28521139
H       0.88938229     -0.19238244      1.77659905
H      -1.71122758     -0.36183725     -2.75539200
H      -3.06868914     -0.35489881     -1.60743452
H      -2.04573227     -1.79600601     -1.80032188
H      -0.66911632      1.71172470     -1.63389241
H      -2.03896876      1.77850992     -0.52084615
H      -0.65602549      2.39292915      1.18699453
H       0.65102061      2.51124480      0.03183937
H       1.31060554      0.91330064      1.83056905
H      -0.17161225     -1.01670617      2.38071803
H      -1.10727098      0.45713707      2.47609078
H      -1.49282876     -1.81826363      0.71684840
H      -2.55273520     -0.42403232      0.94616056
H       3.08191400      0.84555035     -0.11852073
H       2.79439078     -0.20872312     -1.51860631
H       1.90358265      1.28150790     -1.37996352
H       2.34233696     -2.14992972     -0.22553784
H       1.08050119     -2.24961862      0.97090300
H       2.57014357     -1.34828623      1.34284725
