48
COc1cc(NS(=O)(=O)c2ccc(C)cc2)c2c(c1N)C(=O)c1ccccc1C2=O
C      -0.17700769     -4.57942640      2.89431132
O      -1.02308341     -3.43472924      2.91523032
C      -1.03258546     -2.64430412      1.78966845
C      -0.47624883     -3.00860105      0.56445139
C      -0.50965973     -2.12399137     -0.51542301
N       0.19938098     -2.49189377     -1.71250359
S       1.90324454     -2.44898571     -1.65169230
O       2.35584278     -3.34338186     -0.60626920
O       2.37833066     -2.58421491     -3.01159389
C       2.23493416     -0.78117245     -1.12318615
C       2.42873157     -0.50708400      0.23347714
C       2.62478754      0.81142234      0.64598077
C       2.65731157      1.85204660     -0.29248809
C       2.82720683      3.27370112      0.15820561
C       2.48161677      1.55874854     -1.65176333
C       2.28213336      0.24304416     -2.07162117
C      -1.13770247     -0.87071993     -0.38473642
C      -1.70654675     -0.50126512      0.83890947
C      -1.67567486     -1.39378487      1.93397918
N      -2.05185533     -0.98098237      3.23309906
C      -2.35808995      0.82942382      0.96559751
O      -3.06864805      1.10553907      1.92722746
C      -2.16668248      1.83216002     -0.09777804
C      -2.57786666      3.15548853      0.10519090
C      -2.41034389      4.10168092     -0.90741212
C      -1.84056390      3.72828707     -2.12429638
C      -1.43765174      2.40813682     -2.33028712
C      -1.59971384      1.46105513     -1.31136268
C      -1.18126310      0.06764962     -1.52988814
O      -0.86119961     -0.30814038     -2.65406692
H       0.85824417     -4.30645578      2.66347808
H      -0.18955472     -5.02122665      3.89532101
H      -0.55531207     -5.33133023      2.19442431
H       0.00859070     -3.97112167      0.42874548
H      -0.11329500     -1.97802542     -2.55228451
H       2.41268328     -1.30481396      0.97332917
H       2.75630800      1.02307351      1.70581901
H       3.34938291      3.86420655     -0.60189475
H       1.84785341      3.72443809      0.34652677
H       3.42315028      3.32501259      1.07542874
H       2.49861573      2.35603265     -2.39243706
H       2.14059084      0.02943325     -3.12933139
H      -2.28576611     -1.76716764      3.83580613
H      -2.75803563     -0.23760939      3.22621447
H      -3.03009986      3.45291835      1.04992376
H      -2.72988259      5.12939530     -0.74796588
H      -1.71518772      4.46477261     -2.91516825
H      -0.99941862      2.12276166     -3.28489509
