20
O=C(O)c1cccc(C(=O)O)c1[N+](=O)[O-]
O      -3.53558510     -0.32030225      0.39956763
C      -2.50865381     -0.48439076     -0.22820988
O      -2.44534635     -1.25277793     -1.32400863
C      -1.23001152      0.20552285      0.02154588
C      -1.30348251      1.55705328      0.39129830
C      -0.13702834      2.29707719      0.59183314
C       1.10994647      1.68729062      0.44459507
C       1.19829315      0.32618581      0.11544756
C       2.55253638     -0.25123671      0.03867807
O       3.53630403      0.30825454     -0.40267083
O       2.60681331     -1.45397319      0.62662395
C       0.02406187     -0.40336330     -0.10392456
N       0.10732701     -1.79918065     -0.46355228
O       0.65323437     -2.06959634     -1.54201745
O      -0.37381173     -2.61451498      0.33517292
H      -3.33815020     -1.65281617     -1.40983807
H      -2.27280953      2.04217032      0.50626468
H      -0.19981765      3.34964924      0.86302354
H       2.01542844      2.27244160      0.60537909
H       3.54075170     -1.74349315      0.53479188
