29
C=CC1(CC(C)C)C(=O)NC(=O)NC1=O
C      -2.56432278      1.74074651      1.36796277
C      -1.41623707      1.73631386      0.67402789
C      -0.62829161      0.53164677      0.12974947
C       0.78230854      0.56941478      0.78111524
C       1.71141381     -0.65006192      0.55416739
C       3.01280468     -0.44595082      1.33994261
C       2.04473801     -0.91487719     -0.91242186
C      -0.55884858      0.80603173     -1.37031060
O       0.23057451      1.60039634     -1.88232617
N      -1.47487212      0.16638442     -2.15827081
C      -2.17608548     -0.94314348     -1.81321475
O      -2.76946790     -1.61261310     -2.65227835
N      -2.13985148     -1.31373355     -0.50774538
C      -1.33865355     -0.77982963      0.46358975
O      -1.26715236     -1.33645339      1.55951612
H      -3.00416871      2.68060160      1.69326870
H      -3.09193064      0.83631537      1.65500620
H      -0.96649271      2.70957631      0.46061981
H       0.65633276      0.67988425      1.86867226
H       1.31553388      1.47384955      0.45462037
H       1.23354519     -1.54977283      0.95797917
H       3.66814727     -1.31811104      1.24239660
H       3.56078298      0.43161772      0.98013405
H       2.80647346     -0.30470336      2.40620184
H       1.16165771     -1.23731082     -1.47020505
H       2.78472491     -1.71794944     -1.00271511
H       2.45995036     -0.02411086     -1.39476989
H      -1.42569098      0.36539790     -3.14790269
H      -2.60692208     -2.17955568     -0.27680958
