48
CC(CC=O)CCCC(C)(C)O.c1ccc2[nH]ccc2c1
C      -2.54063383     -0.21160837     -1.57894365
C      -2.27499866      0.68203489     -0.36426769
C      -3.54388009      0.88459040      0.48124519
C      -4.14410373     -0.34524657      1.12789127
O      -3.69457705     -1.48252981      1.05305602
C      -1.08632413      0.19544027      0.48913104
C       0.25448849      0.25138877     -0.25452483
C       1.41236798     -0.16349846      0.66446851
C       2.81073885     -0.04090640      0.02397637
C       3.88693682     -0.42136487      1.04627277
C       2.96038355     -0.90733522     -1.22724273
O       3.03532948      1.31612992     -0.36545293
C      -2.16023156     -0.48404330      0.03568805
C      -2.00925114      0.89867684      0.11943695
C      -0.74077994      1.48729139      0.11794730
C       0.36734648      0.63642780      0.02935832
N       1.71291285      0.92711733      0.00643534
C       2.44549859     -0.22642363     -0.08991388
C       1.56372521     -1.28236078     -0.13023160
C       0.24649234     -0.75092041     -0.05561781
C      -1.04127133     -1.32055095     -0.05231015
H      -1.71877710     -0.14816478     -2.29914578
H      -2.65447367     -1.26250944     -1.29716406
H      -3.45062118      0.10175495     -2.10180802
H      -2.01216591      1.67541913     -0.75405644
H      -3.33706583      1.59736617      1.28842271
H      -4.33025338      1.32700227     -0.14214043
H      -5.06246200     -0.15288551      1.70986464
H      -1.01566538      0.82212495      1.38731695
H      -1.25649618     -0.83102601      0.83284131
H       0.41983574      1.26780348     -0.62955094
H       0.21935054     -0.41854005     -1.11902728
H       1.25120882     -1.19481957      1.00344171
H       1.37815301      0.47523000      1.55722797
H       4.89029340     -0.27801979      0.62904436
H       3.78860192     -1.46397505      1.36575461
H       3.82850568      0.21971378      1.93336028
H       2.30803413     -0.56143109     -2.03595724
H       2.73684403     -1.95846500     -1.01852908
H       3.98141975     -0.84476260     -1.62190743
H       2.96000591      1.87108964      0.42944988
H      -3.15611387     -0.92003548      0.03853321
H      -2.89147161      1.53118760      0.18708951
H      -0.62721402      2.56420870      0.18330714
H       2.09735604      1.86026095      0.05423754
H       3.52615552     -0.19642829     -0.12132632
H       1.83363443     -2.32736381     -0.20537281
H      -1.16678799     -2.39704394     -0.11726078
