30
CCCn1cnc2c1c(=O)n(C)c(=O)n2C
C       3.82497243      0.35407145     -0.04958641
C       2.79826002      1.47771580     -0.06035513
C       1.80607745      1.39481636      1.09982758
N       0.90700083      0.26160061      1.02173341
C       1.02556852     -0.90064752      1.74146075
N       0.04888772     -1.74289536      1.47281161
C      -0.72116617     -1.08763467      0.56093270
C      -0.22689036      0.14770573      0.26667512
C      -0.85399893      1.03437892     -0.65197461
O      -0.41253854      2.15067096     -0.90824705
N      -2.01388793      0.49781779     -1.21928112
C      -2.74473058      1.30705527     -2.17493442
C      -2.55611614     -0.77283487     -0.93646221
O      -3.59535849     -1.15489895     -1.48289330
N      -1.87027477     -1.56810792     -0.01889046
C      -2.36215914     -2.88905113      0.32772621
H       4.36670340      0.32548611      0.90112475
H       3.35313166     -0.62012548     -0.20895920
H       4.55538152      0.50502672     -0.85091790
H       2.27114798      1.47053543     -1.02098589
H       3.33036870      2.43406722      0.00532319
H       2.33762550      1.33574482      2.05706529
H       1.18783839      2.29847838      1.13750149
H       1.83656695     -1.07958350      2.43640710
H      -3.75229301      1.48958600     -1.78698670
H      -2.83192861      0.75585041     -3.11706585
H      -2.26110845      2.26715051     -2.37086338
H      -1.59638734     -3.63170139      0.08216146
H      -3.27715188     -3.13928655     -0.21547885
H      -2.57354074     -2.92099115      1.40127707
