26
C=C/C(C)=C/CC=C(C)C
C       4.33340959      1.02293282     -0.15373671
C       3.11020772      0.78548524      0.33777877
C       2.08285178     -0.06819859     -0.25511136
C       2.39087924     -0.71902682     -1.57956794
C       0.91413792     -0.21699533      0.40370534
C      -0.27679881     -1.05127053      0.02244944
C      -1.41526118     -0.18376709     -0.43597929
C      -2.57821257      0.07355957      0.19545295
C      -3.61553227      0.96027471     -0.44372128
C      -2.96682488     -0.45096605      1.54991761
H       5.01647994      1.67840250      0.37819034
H       4.69589957      0.58612315     -1.07714784
H       2.85200735      1.27431275      1.27739215
H       3.21585631     -1.43195792     -1.47381527
H       2.67111931      0.03518218     -2.32365143
H       1.54510901     -1.26405086     -2.00409910
H       0.77443292      0.30846168      1.34893805
H      -0.04697896     -1.76718463     -0.77177278
H      -0.55037467     -1.66978487      0.88249451
H      -1.24781219      0.27099636     -1.41289459
H      -3.80603544      1.83586936      0.18551280
H      -4.55469687      0.41210089     -0.57184583
H      -3.30476009      1.32118193     -1.42983369
H      -2.16948536     -1.00594531      2.04827690
H      -3.83243610     -1.11554181      1.46123107
H      -3.23718127      0.37980668      2.21068035
