24
Nc1ccc(-c2ccc(Cl)cc2)cc1
N      -4.47239586     -0.51578171     -0.43867900
C      -3.09474503     -0.41593111     -0.21707900
C      -2.20434131     -1.20185150     -0.94853056
C      -0.82125193     -1.02651686     -0.81949103
C      -0.29302003     -0.02861424      0.01295824
C       1.16069341      0.15818729      0.14731877
C       1.99624251     -0.91197827      0.51170273
C       3.37781329     -0.73713510      0.64063738
C       3.94112720      0.51353140      0.40444265
Cl      5.64029484      0.73065968      0.56185151
C       3.13594642      1.58918933      0.04134190
C       1.75461743      1.41086842     -0.08545419
C      -1.19769737      0.79667935      0.69715695
C      -2.58007997      0.61698391      0.56639121
H      -4.77351172     -1.43647982     -0.74197992
H      -5.03767421     -0.15757072      0.32455114
H      -2.57727348     -1.96095518     -1.63082291
H      -0.15692564     -1.66408103     -1.39920593
H       1.57017619     -1.89377235      0.71053224
H       4.00276931     -1.57859037      0.92692864
H       3.57229307      2.56620642     -0.14746950
H       1.14053042      2.25942385     -0.38210663
H      -0.83300684      1.59345258      1.34204777
H      -3.25058071      1.29407602      1.08870690
