18
CC(=O)NC(=O)NC(C)=O
C      -0.40567351      1.84875055     -2.52939710
C      -1.14833733      1.67235561     -1.22940877
O      -2.15921971      2.32035398     -0.98609137
N      -0.59200255      0.69618516     -0.42832578
C      -0.98697801      0.37227031      0.84523931
O      -1.91243773      0.87181162      1.47581205
N      -0.24898530     -0.62238694      1.45596741
C       0.86656715     -1.27532918      0.97501509
C       1.45289228     -2.28810406      1.92078483
O       1.35015347     -1.05593324     -0.13440076
H      -0.84021442      1.18921431     -3.28501317
H      -0.49313851      2.88882059     -2.85645301
H       0.65757195      1.61961354     -2.41367359
H       0.23194022      0.20881522     -0.76729988
H      -0.58211116     -0.82267676      2.38874460
H       2.46778665     -1.98113974      2.18712113
H       0.86353208     -2.37929951      2.83715532
H       1.47865443     -3.26332143      1.42713798
