27
Cc1c2ccccc2cc2ccccc12
C       0.28074943      2.58146311      0.13047600
C       0.11541861      1.07566008      0.14891924
C      -1.19136655      0.50684949      0.29504933
C      -2.37910313      1.26094757      0.47108392
C      -3.63411689      0.65735703      0.59411095
C      -3.74309003     -0.72348385      0.54947415
C      -2.59590891     -1.49609680      0.39128316
C      -1.32799068     -0.89995285      0.27103981
C      -0.19489948     -1.70882725      0.13402283
C       1.09228038     -1.16846608      0.04388639
C       2.20032045     -2.02820595     -0.05886463
C       3.49701972     -1.52672409     -0.13004632
C       3.70081192     -0.15640271     -0.09431103
C       2.60624937      0.70785645      0.00318305
C       1.27141515      0.23361979      0.06390504
H      -0.57715711      3.08261230     -0.32627213
H       1.12808836      2.89341807     -0.48635004
H       0.41788999      2.95538765      1.14944893
H      -2.34861561      2.34551261      0.52735445
H      -4.52098070      1.27134727      0.72652864
H      -4.71453968     -1.20054301      0.64365870
H      -2.69865598     -2.57917722      0.36740687
H      -0.31663095     -2.79096493      0.11616840
H       2.05907827     -3.10701564     -0.07912652
H       4.34194001     -2.20529588     -0.20633877
H       4.70875457      0.24737213     -0.13973362
H       2.82303945      1.77175271      0.04196696
