38
OCc1ccccc1O[C@@H]1O[C@H](CO)[C@@H](O)[C@H](O)[C@H]1O
O       5.06374797     -0.89127750      0.78949786
C       3.64899203     -0.73259032      0.81657075
C       3.16462890      0.28018068     -0.19401454
C       4.06460171      1.14362755     -0.84165045
C       3.61197958      2.10168329     -1.74711629
C       2.25161159      2.21732441     -2.00839511
C       1.34110579      1.37292685     -1.36948380
C       1.78614395      0.40062004     -0.46625623
O       0.97058367     -0.47005584      0.21113443
C      -0.42522076     -0.49292199     -0.12194939
O      -1.09641277      0.65199024      0.40965306
C      -2.50300354      0.65284983      0.09963288
C      -3.08590860      1.97126048      0.61674769
O      -2.37146526      3.06494880      0.03419126
C      -3.19294875     -0.55745353      0.73786659
O      -4.57427802     -0.61147053      0.38177180
C      -2.50422080     -1.84259793      0.27363157
O      -3.07196781     -2.95778309      0.97860981
C      -0.99725249     -1.77596180      0.51423889
O      -0.39953807     -2.96210573     -0.03540300
H       5.28477854     -1.52176972      1.49464251
H       3.20835715     -1.71327143      0.60787503
H       3.36107923     -0.40767330      1.82202059
H       5.13190849      1.07315054     -0.63931903
H       4.32221941      2.76060073     -2.23993438
H       1.89548002      2.97160364     -2.70559541
H       0.28903817      1.51638559     -1.59253781
H      -0.54142695     -0.55151438     -1.21322024
H      -2.61469908      0.64031600     -0.99286133
H      -2.97738826      2.05460832      1.70313611
H      -4.14316140      2.07569106      0.35688574
H      -1.42918282      2.89207944      0.22572003
H      -3.14051072     -0.49448360      1.83216270
H      -4.88664722     -1.48816191      0.68650834
H      -2.71700978     -2.02547922     -0.78731464
H      -2.50099671     -3.72060575      0.75348227
H      -0.79023004     -1.79539924      1.59149878
H       0.56721362     -2.82927069      0.01757297
