26
OC(c1ccccc1)c1ccccc1
O      -0.06358517     -2.31028534     -0.93755417
C      -0.09612694     -0.88255219     -1.02276461
C       1.24132237     -0.26902187     -0.63941854
C       2.29162411     -1.03956491     -0.11600430
C       3.51056281     -0.44971190      0.22653035
C       3.69871481      0.91899504      0.04987373
C       2.66950388      1.69951601     -0.47066791
C       1.45083547      1.11058147     -0.81439337
C      -1.27069019     -0.36998209     -0.20623955
C      -1.28873002     -0.50041609      1.19234551
C      -2.37873111     -0.04453473      1.93482750
C      -3.46549305      0.54174632      1.28963416
C      -3.46440111      0.67223177     -0.09781445
C      -2.37482449      0.21756938     -0.84309215
H      -0.95475358     -2.59914462     -0.67912744
H      -0.25955114     -0.65585786     -2.08388835
H       2.16697482     -2.11122478      0.02618765
H       4.31287114     -1.06195926      0.62971322
H       4.64742614      1.37643388      0.31702632
H       2.81400971      2.76776920     -0.60852728
H       0.65774186      1.73797542     -1.21622150
H      -0.44539338     -0.95600274      1.70892286
H      -2.37777784     -0.14566083      3.01711106
H      -4.31350523      0.89776236      1.86889260
H      -4.31357267      1.12902190     -0.59987244
H      -2.39445121      0.32631646     -1.92547891
