30
CC[N+](CC)(CC)CC.[Br-]
C      -1.90500095     -1.21642005     -1.22909028
C      -0.41921862     -0.92067065     -1.30136711
N       0.17497823     -0.18600934     -0.06322989
C       1.73516241     -0.20721652     -0.23589818
C       2.23954104      0.49792333     -1.48620928
C      -0.36012568      1.26259538     -0.01032667
C       0.33903230      2.13552774      1.02182857
C      -0.09896320     -0.98874796      1.24542420
C      -1.41792204     -0.69192567      1.94503985
Br      0.00000000      0.00000000      0.00000000
H      -2.12494646     -1.99538829     -0.49440477
H      -2.24357321     -1.60165911     -2.19749467
H      -2.50125605     -0.32733938     -1.01099316
H       0.13948257     -1.85606333     -1.42063363
H      -0.22923411     -0.28517988     -2.17205131
H       2.03457054     -1.26221238     -0.25219429
H       2.17140149      0.25020902      0.65825168
H       1.91712939     -0.00420519     -2.40212734
H       3.33506622      0.48499105     -1.48909448
H       1.93083061      1.54487642     -1.53246803
H      -0.24428326      1.69499592     -1.00983229
H      -1.43243681      1.21444806      0.19746543
H      -0.19101883      3.08991170      1.11038074
H       1.36530602      2.37129063      0.72607513
H       0.36592399      1.67912324      2.01415218
H      -0.02260849     -2.05069926      0.98567132
H       0.71440993     -0.75780403      1.94302427
H      -1.54310854     -1.38759532      2.78232645
H      -2.29266725     -0.80088902      1.30508409
H      -1.43647124      0.31413287      2.37269144
