14
C[C@@H](Cl)[C@@H](C)Cl
C       1.53952660      0.58260590     -0.04318473
C       0.74036947     -0.71199253      0.07943471
Cl      0.81261118     -1.26559293      1.78931285
C      -0.72438172     -0.62079095     -0.38894342
C      -1.55213787      0.46876472      0.28734163
Cl     -0.79304085     -0.36581574     -2.16817109
H       1.55204897      0.94935279     -1.07398399
H       1.13531964      1.37578703      0.59424416
H       2.58198343      0.42118883      0.25424116
H       1.25103344     -1.49235393     -0.49635733
H      -1.21410367     -1.58642035     -0.21861797
H      -1.56755581      0.34339613      1.37419549
H      -2.59220822      0.43123496     -0.05628612
H      -1.16946459      1.47063606      0.06677465
