23
O=NC1=C(NO)CCCCC1
O       0.95126658      2.77987431      2.17564459
N       0.80855690      1.55200628      2.21220803
C       0.42745254      1.00563778      1.04653154
C       1.17162442      0.01461949      0.48443234
N       2.35850385     -0.47853034      1.04255912
O       3.35284119     -0.96094166      0.19394337
C       0.71431016     -0.63733949     -0.81446537
C      -0.59044219     -1.42498387     -0.67307890
C      -1.84449264     -0.55665448     -0.72770934
C      -1.97765798      0.45032246      0.41125351
C      -0.87006001      1.50583477      0.43559125
H       2.73719546      0.13785760      1.76930423
H       3.39303438     -1.90964618      0.42029934
H       1.47218484     -1.34277063     -1.17449359
H       0.63213392      0.11906390     -1.60519412
H      -0.64846753     -2.14076917     -1.50304581
H      -0.58376794     -2.01971323      0.24880805
H      -1.88021860     -0.02761404     -1.68832075
H      -2.72100383     -1.21617069     -0.70807129
H      -2.02976612     -0.07525345      1.37288460
H      -2.93846138      0.96598036      0.28737774
H      -0.68333345      1.89778653     -0.57235673
H      -1.25143255      2.36140375      1.01000374
