15
O=C(O)c1cc(Cl)cc(Cl)c1
O      -2.87927218      0.94692717     -0.01823604
C      -2.13643436     -0.00657306      0.11714465
O      -2.61097569     -1.23766326      0.36973507
C      -0.65799564      0.03057885      0.03007176
C       0.12348388     -1.11865792      0.19942086
C       1.51166582     -1.02704556      0.10721061
Cl      2.47300635     -2.43913566      0.31523272
C       2.12995490      0.19423885     -0.15137237
C       1.34646343      1.33357035     -0.31878703
Cl      2.10184127      2.84596143     -0.63844759
C      -0.04249443      1.26112304     -0.23006598
H      -3.58408179     -1.11799397      0.40048961
H      -0.34203359     -2.08032289      0.40187681
H       3.21259266      0.25746908     -0.22177218
H      -0.64572063      2.15752354     -0.36250089
