12
CCCO
C      -1.51928928      0.01405856     -0.05674623
C      -0.08995039     -0.32585388     -0.43864959
C       0.90839169      0.19792562      0.58380426
O       2.22826832     -0.15818996      0.19507033
H      -2.21505981     -0.37325830     -0.80758104
H      -1.78256652     -0.42718977      0.90984646
H      -1.66021903      1.09756691      0.01009746
H       0.02131679     -1.41223210     -0.53760608
H       0.13941617      0.09162839     -1.42632468
H       0.71928519     -0.23549784      1.57081089
H       0.85461411      1.28783521      0.67191686
H       2.39579277      0.24320717     -0.67463865
