13
CC(C)N
C       1.30221698     -0.18283090      0.46548501
C       0.03098485      0.03030631     -0.34980454
C      -1.11797012     -0.81075368      0.19670789
N      -0.33916983      1.44382197     -0.31905309
H       1.60275046     -1.23593492      0.44342828
H       1.16179103      0.10441660      1.51373416
H       2.13228356      0.40737616      0.06151217
H       0.22211482     -0.26162157     -1.38881490
H      -1.35197463     -0.54778438      1.23456407
H      -2.02612266     -0.67153196     -0.40030579
H      -0.86347678     -1.87580327      0.16953902
H      -1.16206463      1.59640919     -0.90071457
H       0.40863695      2.00393045     -0.72627770
