31
O=C1CCC(C(=O)[O-])N1.O=C1CCC(C(=O)[O-])N1.[Cu+2]
O       2.40576473     -0.44270141     -1.31326225
C       1.44949340     -0.23570362     -0.58337006
C       0.71686052     -1.27372304      0.23065929
C      -0.21727305     -0.43857500      1.10209610
C      -0.45470751      0.81020596      0.26800083
C      -1.65320681      0.73959178     -0.73204773
O      -1.59450991      1.59201000     -1.66839975
O      -2.52863413     -0.13793705     -0.49545386
N       0.84191237      0.98787241     -0.37968310
O      -2.16668142      0.85175076     -1.51272480
C      -1.32716900      0.49036074     -0.70361546
C      -1.14990369     -0.91366755     -0.18001087
C      -0.12958056     -0.74167402      0.94196823
C       0.66490123      0.48101654      0.51141655
C       1.90141312      0.19899910     -0.40126644
O       2.35835196     -0.97702281     -0.37704543
O       2.29817282      1.20775489     -1.05838724
N      -0.36423167      1.29608200     -0.12798732
Cu      0.00000000      0.00000000      0.00000000
H       0.15650499     -1.92387658     -0.44797637
H       1.41322279     -1.86229178      0.83258238
H       0.30433138     -0.16885264      2.02980590
H      -1.12129500     -0.98582363      1.38229825
H      -0.62853478      1.67989982      0.91167511
H       0.91007101      1.65990477     -1.13692474
H      -0.75810111     -1.54372075     -0.98422932
H      -2.09565177     -1.31536913      0.19126102
H      -0.66029818     -0.52570483      1.87853706
H       0.46431670     -1.64527292      1.10334499
H       1.03302272      1.03205675      1.38419435
H      -0.06856115      2.10441124     -0.66545534
