32
[2H]c1c([2H])c([2H])c(C(=O)c2ccc3n2CCC3C(=O)O)c([2H])c1[2H]
H      -6.18300565      0.64997945      0.93332261
C      -5.16831676      0.55008132      0.55509903
C      -4.95271308      0.09420690     -0.74560918
H      -5.79770019     -0.15865610     -1.38124652
C      -3.65134953     -0.03008698     -1.23422276
H      -3.48667836     -0.37512405     -2.25283520
C      -2.56143230      0.28947736     -0.41484770
C      -1.18917074      0.16432473     -0.97414726
O      -1.01529692      0.54462499     -2.13114602
C      -0.12236721     -0.39330661     -0.16170948
C      -0.15620470     -1.16075213      1.00469852
C       1.17967952     -1.44854274      1.41887809
C       1.99068823     -0.86310040      0.48715012
N       1.19969246     -0.27390231     -0.45347678
C       1.95536412      0.36475608     -1.51670976
C       3.36289374     -0.22925049     -1.31912035
C       3.43065723     -0.68294659      0.16430429
C       4.08246691      0.37949769      1.02980444
O       3.57975698      1.06532584      1.90387270
O       5.39721231      0.52271986      0.74674943
C      -2.78220333      0.76815434      0.88269268
H      -1.94975314      1.06309752      1.51706035
C      -4.08598507      0.89099317      1.36702526
H      -4.25844962      1.26106687      2.37482866
H      -1.05181204     -1.48867581      1.51792012
H       1.48722751     -2.01062865      2.29096832
H       1.92931288      1.44395252     -1.34092799
H       1.52918768      0.10350229     -2.48746723
H       4.14426591      0.48056904     -1.60821468
H       3.46713082     -1.11210819     -1.96408352
H       3.98354176     -1.62111451      0.27734242
H       5.69336056      1.21186557      1.37891633
