34
C/C=C/C(=O)C1C(C)C=CCC1(C)C
C       4.16329716      0.67274070     -2.08714410
C       3.30055429      0.14711579     -0.98814994
C       1.95998638      0.18393208     -1.00520282
C       1.16291072     -0.36194878      0.13693441
O       1.72241054     -0.85648679      1.11353477
C      -0.36193908     -0.27565590      0.01741189
C      -0.99055472     -1.64593604      0.39878187
C      -0.68869367     -2.69873063     -0.67661626
C      -2.48498851     -1.55787310      0.60478928
C      -3.15714738     -0.40086382      0.67523074
C      -2.49632672      0.94240966      0.58887571
C      -0.96195645      0.91108382      0.83720124
C      -0.68968159      0.78279589      2.35298775
C      -0.38227132      2.26132474      0.36745050
H       4.82038316      1.45833937     -1.70188468
H       4.78691175     -0.13173334     -2.48872748
H       3.57537424      1.09219359     -2.90967839
H       3.81961239     -0.28601085     -0.13374626
H       1.41307570      0.60855832     -1.83816852
H      -0.59831389     -0.09373185     -1.04203118
H      -0.55728194     -2.00932633      1.33962133
H       0.38964422     -2.84147748     -0.80068327
H      -1.11625223     -3.67073124     -0.40513168
H      -1.10598785     -2.41010825     -1.64804079
H      -3.03179961     -2.49260760      0.71443534
H      -4.23616059     -0.41575386      0.81066435
H      -2.71175910      1.35171024     -0.40681071
H      -2.97414075      1.61672020      1.31086803
H      -1.07062757     -0.15397848      2.77013741
H       0.38090269      0.83632079      2.57551802
H      -1.16959462      1.60018089      2.90430136
H      -0.89078793      3.09892151      0.85899040
H      -0.50286894      2.39032181     -0.71390651
H       0.68407122      2.34828496      0.60078959
