25
O=C(Oc1ccccc1)n1cc(F)c(=O)[nH]c1=O
O      -0.13754986     -0.62175683     -1.47560793
C       0.35833511     -0.23117858     -0.41701125
O      -0.38968326      0.29475691      0.63241751
C      -1.76482990      0.34757588      0.39262992
C      -2.31484617      1.50062096     -0.16372035
C      -3.69322962      1.56704836     -0.36160738
C      -4.50520094      0.49228738      0.00935692
C      -3.94264551     -0.64987711      0.58469372
C      -2.56504909     -0.72329456      0.78555568
N       1.74597831     -0.28074117     -0.16607763
C       2.56346953     -0.79540493     -1.17158737
C       3.88603356     -0.89253409     -1.05087852
F       4.66400628     -1.39097307     -2.02829273
C       4.54459856     -0.44588478      0.18525935
O       5.75427443     -0.50812231      0.35914044
N       3.68683887      0.04828560      1.13109079
C       2.31430489      0.16141248      1.03571382
O       1.71580955      0.63330946      1.99878989
H      -1.68148104      2.33711034     -0.44089124
H      -4.13710571      2.45607879     -0.80185153
H      -5.57994237      0.54686503     -0.14605501
H      -4.57992530     -1.47988006      0.87826676
H      -2.12486590     -1.60420399      1.24156051
H       2.08284227     -1.12756015     -2.08844444
H       4.09986330      0.36606045      1.99617284
