42
CC(CC(=O)OOC(C)(C)C)CC(C)(C)C
C      -0.79981044      0.04973125     -1.31405786
C      -1.18962502     -0.20177507      0.14402350
C      -0.05415887      0.27465379      1.07809385
C       1.18334000     -0.59465872      0.99972636
O       1.19287847     -1.77099262      0.66240453
O       2.27117172      0.14837813      1.38487937
O       3.43928878     -0.73285387      1.34698282
C       4.38102223     -0.18581919      0.40872562
C       4.84051679      1.20278865      0.86562114
C       5.57897188     -1.14278106      0.42033542
C       3.79090611     -0.13757731     -1.00473388
C      -2.50219120      0.50778791      0.56149517
C      -3.84180259      0.11900190     -0.13069602
C      -4.99485596      0.61513206      0.77280459
C      -4.00920170      0.81012162     -1.49524092
C      -3.98513252     -1.40083804     -0.29768530
H      -1.44474542     -0.51039358     -1.99504110
H       0.22265859     -0.28217857     -1.52202638
H      -0.86172399      1.11357947     -1.56548707
H      -1.31462247     -1.28213896      0.28457861
H       0.21516022      1.30761390      0.82555646
H      -0.38105118      0.25356767      2.12432065
H       5.20260213      1.17218182      1.89946958
H       5.64113540      1.59050006      0.22686180
H       4.01596773      1.92379622      0.84473512
H       5.27145538     -2.15493223      0.13267122
H       6.00397777     -1.22362749      1.42759777
H       6.36885260     -0.81373653     -0.26296497
H       3.39610984     -1.11724621     -1.29622620
H       4.54162934      0.16793663     -1.74132793
H       2.95671202      0.56956857     -1.06742826
H      -2.62613557      0.31599174      1.63737427
H      -2.36152688      1.59448042      0.47654674
H      -4.93696572      1.69866629      0.92714058
H      -4.96381693      0.13415123      1.75714390
H      -5.97274133      0.39320304      0.33018542
H      -5.02239735      0.66123575     -1.88748270
H      -3.32507322      0.42109206     -2.25096973
H      -3.84442276      1.89035344     -1.41500894
H      -3.25339928     -1.80332335     -1.00509781
H      -4.97882904     -1.66365622     -0.67858535
H      -3.85012756     -1.91698459      0.65934318
