27
O=c1[nH]c(CN2CCCC2)c(Br)c(=O)[nH]1
O       2.80092865      1.30207441     -2.35499646
C       2.71558179      0.62126954     -1.33969207
N       1.63269901      0.66859475     -0.51566069
C       1.46377878     -0.10283895      0.61740025
C       0.15584212      0.13489684      1.35419325
N      -0.95209649      0.45210548      0.43669809
C      -1.43698335     -0.72357005     -0.29713648
C      -2.78233728     -0.25981127     -0.83552675
C      -3.23830978      0.83547883      0.12190911
C      -2.13057849      0.94189557      1.15850564
C       2.41678655     -0.98117773      0.98228742
Br      2.33757785     -2.07919699      2.49122889
C       3.64064459     -1.07979023      0.12210078
O       4.55564466     -1.86561118      0.35369167
N       3.69774125     -0.24324618     -0.95963076
H       0.86249424      1.27613815     -0.79022738
H      -0.11830398     -0.70609898      2.00030066
H       0.32228499      1.00015536      2.01017718
H      -0.76546701     -1.01906924     -1.10921657
H      -1.58206984     -1.58539086      0.36695879
H      -2.67632374      0.15174697     -1.84616185
H      -3.50168203     -1.08364028     -0.88206051
H      -4.20034800      0.59487997      0.58548672
H      -3.35429231      1.77975588     -0.42292895
H      -2.00200959      1.97205615      1.50529135
H      -2.36863165      0.30862202      2.02293404
H       4.50742906     -0.31022798     -1.55590886
