37
C=CCOCC(CC)(CO)COCC=C
C      -5.13016339      0.94585099     -2.22793467
C      -3.80500310      1.11761033     -2.32120870
C      -2.90499947      1.43559593     -1.17201678
O      -1.93426733      0.39390041     -1.09878670
C      -0.99034672      0.62566170     -0.04621110
C       0.01894050     -0.55136195      0.03806666
C      -0.76650702     -1.85642774      0.36753366
C       0.07536031     -3.12176125      0.48418639
C       0.76640657     -0.66201918     -1.31297846
O      -0.07477678     -1.13670159     -2.36060642
C       1.04162864     -0.24741211      1.15716406
O       1.68992046      1.00204620      0.91246746
C       2.74339219      1.27574301      1.83453110
C       4.03475899      0.76699860      1.27217695
C       5.09984058      1.53272070      0.99973047
H      -5.72014898      0.70844854     -3.10787106
H      -5.65276071      1.02404472     -1.27924368
H      -3.32655435      1.01959400     -3.29298147
H      -3.45983753      1.49136460     -0.22824895
H      -2.40821258      2.39521372     -1.35352068
H      -1.52811944      0.72813104      0.90487990
H      -0.47235680      1.56991226     -0.25037742
H      -1.53701152     -2.03715959     -0.39188743
H      -1.30674095     -1.72008100      1.31426916
H       0.62519994     -3.32988478     -0.43733218
H       0.78761493     -3.05835061      1.31075210
H      -0.57458796     -3.98107831      0.68065067
H       1.61528483     -1.35000504     -1.23952159
H       1.16760947      0.30892300     -1.62486029
H      -0.92335962     -0.65299240     -2.27129338
H       0.53397704     -0.19348145      2.12815330
H       1.79686295     -1.03910092      1.20915546
H       2.78124208      2.36246414      1.96715460
H       2.54104188      0.83116672      2.81577627
H       4.09873920     -0.30032491      1.07957549
H       5.09105361      2.60551547      1.16480355
H       6.00688008      1.09723673      0.59158078
