37
O=C([O-])c1ccccc1-c1c2ccc(=O)cc-2oc2cc([O-])ccc12.[Na+].[Na+]
O       2.42158892      0.31853113      3.37478974
C       1.89796869     -0.35919163      2.43210740
O       1.18778215     -1.40126085      2.57914786
C       2.27186780      0.04863001      1.02663447
C       3.63699860      0.32609077      0.78431703
C       4.10376069      0.67982933     -0.48145545
C       3.21150709      0.76811432     -1.54037465
C       1.85737778      0.51168380     -1.32356136
C       1.36378722      0.15689899     -0.04658023
C      -0.12008281     -0.02690618      0.03338073
C      -0.67266733     -1.26798595     -0.06553899
C       0.14682225     -2.48788487     -0.11094040
C      -0.39494738     -3.70897700     -0.20033341
C      -1.85966674     -3.87272713     -0.28321357
O      -2.36713563     -4.98381589     -0.40934277
C      -2.69003771     -2.65394076     -0.24184346
C      -2.13372310     -1.43857364     -0.14755391
O      -2.97262857     -0.33448907     -0.18034330
C      -2.42592445      0.92118489     -0.12952442
C      -3.32498319      1.99778982     -0.25082462
C      -2.92321265      3.34507840     -0.22890721
O      -3.73805381      4.31643471     -0.37339541
C      -1.54291723      3.52424243     -0.02978698
C      -0.63025097      2.45804316      0.09589366
C      -1.06070751      1.13115976      0.01801248
Na      0.00000000      0.00000000      0.00000000
Na      0.00000000      0.00000000      0.00000000
H       4.33444128      0.26203985      1.61925528
H       5.15775998      0.89028874     -0.62802508
H       3.55699590      1.05143391     -2.52890188
H       1.16275931      0.60951512     -2.15636681
H       1.22327530     -2.40604861     -0.00052349
H       0.20614616     -4.60696654     -0.19002610
H      -3.76033675     -2.78649617     -0.31239364
H      -4.38357161      1.77938320     -0.37804739
H      -1.15772501      4.54161167      0.02560132
H       0.41773332      2.69728030      0.24866457
