33
CCNC(=O)[C@@H](C)OC(=O)Nc1ccccc1
C       3.39541128      2.50810823      0.85050293
C       4.06609042      1.16076425      1.05256034
N       3.45791425      0.12975157      0.23746245
C       2.28781183     -0.49497122      0.63030052
O       1.75736273     -0.30164397      1.72178858
C       1.72659856     -1.48726894     -0.40447112
C       2.45333005     -2.81860899     -0.26291519
O       0.33044230     -1.72737350     -0.20346093
C      -0.46923019     -0.69033332     -0.57657389
O      -0.05752180      0.31372241     -1.13776130
N      -1.75195215     -1.00286142     -0.23158150
C      -2.92020565     -0.24874660     -0.42889506
C      -4.12199039     -0.79339411      0.04141868
C      -5.32745476     -0.10536502     -0.11945864
C      -5.34160508      1.13440483     -0.75253881
C      -4.15119917      1.68390501     -1.22288128
C      -2.94441840      0.99527904     -1.06206272
H       2.33959301      2.47340736      1.13823521
H       3.44387689      2.81445727     -0.19975949
H       3.88971776      3.27445735      1.45523036
H       5.12096645      1.21832940      0.76659118
H       4.01081911      0.86730873      2.10619869
H       3.71182984      0.09855594     -0.74158766
H       1.89772336     -1.10663565     -1.41958104
H       3.52974021     -2.71000542     -0.42861042
H       2.30325489     -3.24072000      0.73738542
H       2.05945765     -3.54834553     -0.97834809
H      -1.83314953     -1.88662802      0.25049048
H      -4.13677494     -1.75868296      0.54063208
H      -6.25344359     -0.53719584      0.25099021
H      -6.27703530      1.67319712     -0.87808486
H      -4.15625182      2.65281204     -1.71583667
H      -2.03970782      1.46031994     -1.44086783
