16
NC(=S)c1c(Cl)cccc1Cl
N      -2.54089380      0.49785475      0.77531694
C      -1.83339356      0.39665185     -0.39316258
S      -2.59521950      0.61275866     -1.86204890
C      -0.39845798      0.09258369     -0.24780036
C       0.04340776     -1.23864763     -0.21889632
Cl     -1.04113394     -2.58161455     -0.31355953
C       1.40740253     -1.52247102     -0.09003741
C       2.33389174     -0.48593023      0.01675225
C       1.89831809      0.83856271      0.00271544
C       0.53625219      1.13166276     -0.12577923
Cl      0.07748233      2.79831411     -0.10221046
H      -3.53256579      0.70583725      0.72974950
H      -2.13066059      0.37650870      1.69294552
H       1.75460810     -2.55369129     -0.07168623
H       3.39400766     -0.71019640      0.11456754
H       2.62695476      1.64181662      0.09313383
