36
CCCCOCCC(=O)OCCCC
C       4.84353160      0.30663275     -1.72895670
C       3.81188530     -0.29640862     -0.78853394
C       4.26459344     -0.20490639      0.67067772
C       3.25667027     -0.83578685      1.62674874
O       2.03131128     -0.10801488      1.56550379
C       1.04196928     -0.65822046      2.43759913
C      -0.24961146      0.12033625      2.25992622
C      -0.94659249     -0.29580053      0.99053041
O      -1.05055630     -1.45130374      0.60021793
O      -1.49830059      0.79097007      0.38059471
C      -2.19681730      0.53198789     -0.84693940
C      -3.65167617      0.17775395     -0.55450919
C      -4.44206443     -0.05326989     -1.83946943
C      -5.89210135     -0.40356513     -1.54629159
H       5.00903132      1.36486663     -1.50296209
H       5.80171371     -0.21646387     -1.64785142
H       4.50162334      0.23006760     -2.76585865
H       2.85843901      0.22709505     -0.92313604
H       3.64718655     -1.34537037     -1.06098049
H       5.23256155     -0.70536910      0.78935994
H       4.40112711      0.85105111      0.93405107
H       3.08136003     -1.88333755      1.35587891
H       3.64940061     -0.79613119      2.64907912
H       0.90677208     -1.72512721      2.22691415
H       1.39155361     -0.54688244      3.47034039
H      -0.03588029      1.19455417      2.22336343
H      -0.93854025     -0.07417186      3.08823387
H      -2.14648748      1.45218985     -1.43922407
H      -1.69524695     -0.25021143     -1.42937413
H      -4.10861094      0.98370329      0.03325841
H      -3.69544187     -0.71612245      0.07936029
H      -4.40892281      0.84681673     -2.46428225
H      -3.98534868     -0.86591987     -2.41626350
H      -6.38734639      0.40356162     -0.99708682
H      -5.96172319     -1.31871191     -0.94961889
H      -6.43946113     -0.56461306     -2.48029963
