25
O=C1c2ccccc2C(=O)c2cc(O)ccc21
O      -0.88703707     -2.54312475      0.70444182
C      -0.57913158     -1.39412364      0.41028813
C      -1.61927939     -0.35793139      0.25169079
C      -2.96626152     -0.69390843      0.43945109
C      -3.95624497      0.27907432      0.29160245
C      -3.60548108      1.58663065     -0.04317276
C      -2.26398451      1.92394549     -0.23080202
C      -1.26878002      0.94915279     -0.08295174
C       0.14746988      1.31529091     -0.28338796
O       0.45879861      2.46364542     -0.57766967
C       1.18830255      0.28053819     -0.12518043
C       2.53417877      0.62353077     -0.31449477
C       3.51307567     -0.35313283     -0.16488496
O       4.83379278     -0.06696703     -0.33884662
C       3.17361697     -1.65998126      0.16880953
C       1.83346274     -2.00128062      0.35726147
C       0.83740917     -1.02756622      0.20973257
H      -3.24819783     -1.71256047      0.70096009
H      -5.00169294      0.01604779      0.43786040
H      -4.37712082      2.34479967     -0.15836113
H      -1.99841549      2.94697827     -0.49201033
H       2.80038599      1.64460612     -0.57529911
H       4.92922081      0.87340870     -0.56691103
H       3.95062991     -2.41202473      0.28212941
H       1.57128336     -3.02504769      0.61836756
