32
C=CC(C)(O)CC/C=C(\C)CC
C      -4.08149947     -2.13457937      0.70736300
C      -3.35353900     -1.06972448      1.07525022
C      -2.56044885     -0.14674587      0.16908109
C      -3.24716263      1.22000296      0.12163677
O      -2.55502220     -0.66733174     -1.15982202
C      -1.10450299     -0.05503651      0.67580912
C      -0.19109680      0.81642353     -0.19449836
C       1.22298338      0.79963300      0.32344067
C       2.27482380      0.12678988     -0.18523188
C       2.19602556     -0.80947653     -1.36183618
C       3.64415862      0.25154780      0.45311305
C       4.63482059      1.00031384     -0.42765798
H      -4.61964102     -2.72006944      1.44663025
H      -4.18253747     -2.43345863     -0.33128319
H      -3.33086459     -0.81762807      2.13518508
H      -4.29858482      1.11947505     -0.17508071
H      -3.21401368      1.72629147      1.09238236
H      -2.78915597      1.87244714     -0.62962614
H      -2.13397349     -1.54272677     -1.11711082
H      -1.09169184      0.32382772      1.70708168
H      -0.67716762     -1.06769616      0.70812714
H      -0.53358962      1.85755112     -0.17816067
H      -0.23553966      0.50151348     -1.24128605
H       1.38426343      1.43375337      1.19538164
H       1.17065754     -1.07978481     -1.62651457
H       2.66596498     -0.35824655     -2.24103655
H       2.71525105     -1.74690834     -1.13487443
H       4.03286754     -0.74903041      0.67783271
H       3.57491870      0.77171988      1.41665772
H       4.82201226      0.46688736     -1.36509943
H       5.59291613      1.10705556      0.09132872
H       4.26836817      2.00321049     -0.67100379
