27
CC(NC(=O)C(Br)C(C)C)C(=O)O
C       3.36467724      1.57633176      0.07519716
C       2.36610117      0.48796683      0.44315166
N       1.13607828      0.66131483     -0.33042294
C      -0.08624976      0.26733229      0.18491989
O      -0.20805134     -0.09156440      1.35250841
C      -1.22709878      0.23899550     -0.83683393
Br     -1.34537860      2.02765661     -1.65247897
C      -2.61558585     -0.20302761     -0.34101713
C      -2.62884148     -1.70181651     -0.01989767
C      -3.16512730      0.58942378      0.85066712
C       3.00036980     -0.88457958      0.19030319
O       3.99323231     -1.33118837      0.74451398
O       2.40055890     -1.60256195     -0.78728030
H       3.63983781      1.52120247     -0.98438176
H       2.94310104      2.57035281      0.25906329
H       4.28467769      1.48152338      0.66174573
H       2.12541919      0.54314330      1.51037143
H       1.23060452      0.64898038     -1.33895186
H      -0.91423884     -0.40797322     -1.66552980
H      -3.32521641     -0.05854851     -1.16786086
H      -2.28638122     -2.28725921     -0.87975974
H      -1.98682010     -1.94303632      0.83273420
H      -3.64382281     -2.03461302      0.22328551
H      -4.19575407      0.28253967      1.06287082
H      -3.18475396      1.66461717      0.65216257
H      -2.58680361      0.42223715      1.76335798
H       2.91546617     -2.43744922     -0.80243801
