25
CC(C)(C)c1ccccc1O
C      -1.81650935      0.52092637     -1.14520566
C      -1.17270084      0.00610611      0.16135310
C      -1.47543751      0.98676630      1.31603115
C      -1.90417271     -1.31519333      0.51280204
C       0.35236062     -0.16047194     -0.01845774
C       0.97475309     -1.41674740      0.13306816
C       2.35537073     -1.58304812     -0.02677772
C       3.15800057     -0.49554529     -0.34383459
C       2.57970810      0.75892168     -0.50112944
C       1.19804699      0.92008039     -0.34016627
O       0.67246422      2.17248827     -0.50437627
H      -1.48254543      1.52644496     -1.41626694
H      -1.58160462     -0.14150066     -1.98679845
H      -2.90826576      0.56878268     -1.05454163
H      -0.99506138      0.65960611      2.24580096
H      -1.13241789      2.00465070      1.11030787
H      -2.55364611      1.05312756      1.50445716
H      -1.54093773     -1.74016092      1.45589697
H      -1.78078400     -2.06774149     -0.27486009
H      -2.98233801     -1.15150140      0.63123088
H       0.40251595     -2.30632671      0.38073879
H       2.79837073     -2.56800102      0.09825457
H       4.22944612     -0.62480738     -0.46784684
H       3.21771869      1.60167249     -0.74904952
H       1.38766554      2.79147205     -0.72063049
