32
C=C(Br)CC1(C(C)CC)C(=O)NC(=O)NC1=O
C      -3.32756261     -1.50966648     -0.94726018
C      -2.51236021     -1.61487131      0.11171680
Br     -3.21693586     -1.86977095      1.82770236
C      -0.99974264     -1.63997205     -0.00220794
C      -0.27838847     -0.25999058      0.08473123
C       1.29649574     -0.41816099      0.02561455
C       1.80453796     -1.28670124     -1.13752186
C       2.01345768      0.95944422      0.02482702
C       3.51406937      0.87237980      0.27668983
C      -0.61307848      0.34001512      1.44584598
O      -0.16545759     -0.10631182      2.50153668
N      -1.45263430      1.41420681      1.46686691
C      -1.70396485      2.23376353      0.41583237
O      -2.31604103      3.28750202      0.55133597
N      -1.23964445      1.83375673     -0.79509589
C      -0.75216770      0.59325822     -1.08316809
O      -0.70890581      0.21523365     -2.25323249
H      -4.40827447     -1.53439697     -0.84107505
H      -2.93814055     -1.40911297     -1.95671033
H      -0.58822242     -2.32004845      0.75635143
H      -0.76775281     -2.11506964     -0.96462137
H       1.60729150     -0.94071161      0.94177635
H       2.88590194     -1.44139829     -1.06907664
H       1.36186400     -2.28604271     -1.12284458
H       1.60062578     -0.82863700     -2.10917322
H       1.84848405      1.47245433     -0.93001262
H       1.59062763      1.60132334      0.80565035
H       3.93233866      1.87823885      0.38785814
H       4.03751253      0.39235814     -0.55466809
H       3.72779305      0.31487425      1.19388303
H      -1.68952128      1.78122961      2.37863314
H      -1.54220434      2.39082445     -1.58262557
