34
CCCCOCCOC(=O)c1ccccc1
C      -6.24957122      0.65896835     -0.31307219
C      -4.77759775      0.41284907     -0.60494489
C      -4.25823212     -0.81859142      0.14070148
C      -2.79085995     -1.10240533     -0.16672099
O      -1.99186422     -0.01859122      0.30376382
C      -0.60699558     -0.22579477      0.02686753
C       0.19813172      0.93933290      0.59432612
O       1.57869018      0.86579590      0.20542918
C       2.34512920      0.01228076      0.92822712
O       1.95437283     -0.70290503      1.83679813
C       3.75630349      0.04518347      0.45626250
C       4.18402194      0.88488369     -0.58161622
C       5.52137220      0.87494585     -0.98609575
C       6.43591217      0.02966335     -0.35847323
C       6.01820915     -0.80765508      0.67494979
C       4.68261519     -0.80071342      1.08217214
H      -6.85941317     -0.19550646     -0.62338502
H      -6.60107610      1.54193585     -0.85597455
H      -6.41435732      0.82923569      0.75565698
H      -4.64326992      0.27722247     -1.68440194
H      -4.20397431      1.30077600     -0.31569215
H      -4.85707311     -1.69520579     -0.13223611
H      -4.37721765     -0.65670735      1.21898644
H      -2.64619460     -1.23024634     -1.24573871
H      -2.48530937     -2.02382512      0.34195993
H      -0.45073740     -0.29129020     -1.05648788
H      -0.27526971     -1.17174440      0.46919259
H      -0.19766138      1.88424961      0.20479547
H       0.09782860      1.00162301      1.68524973
H       3.48910871      1.55323488     -1.08379991
H       5.84990786      1.52816397     -1.79099482
H       7.47639282      0.02425512     -0.67462409
H       6.73161065     -1.46579099      1.16501429
H       4.36706819     -1.45762700      1.89081042
