25
Cc1cc(C)cc(OCC(=O)O)c1
C      -2.26202847     -2.32358224     -0.27544976
C      -1.52152736     -1.02722587     -0.11771257
C      -2.22342870      0.16055874      0.12260021
C      -1.54223480      1.37031354      0.29452775
C      -2.29762527      2.63511236      0.57711649
C      -0.14254277      1.37290513      0.25883278
C       0.57349765      0.19358761      0.03478240
O       1.93377309      0.34615419      0.02563882
C       2.71036321     -0.83193520     -0.20959994
C       4.18169594     -0.45229532     -0.19139710
O       5.09452814     -1.24757048     -0.36147947
O       4.39433003      0.86782756      0.03379871
C      -0.11889505     -1.00435829     -0.14983345
H      -2.38153401     -2.80664565      0.69915514
H      -3.25241421     -2.15792459     -0.71238978
H      -1.72240906     -3.00225049     -0.94433840
H      -3.31082446      0.14296972      0.17446377
H      -1.75861672      3.50663205      0.19093731
H      -3.27948023      2.62036426      0.09238847
H      -2.43707711      2.75443491      1.65592034
H       0.39785066      2.30472124      0.41044263
H       2.48648841     -1.24215129     -1.19991563
H       2.54630956     -1.55967571      0.59198534
H       3.52867205      1.32125015      0.14227720
H       0.40312948     -1.94121632     -0.31765763
