24
O=C(c1ccco1)N(O)c1ccccc1
O       0.23970277      1.67119881      1.33618473
C       0.76226208      0.73371436      0.73092399
C       2.18479049      0.46485044      0.92966388
C       3.17597720      1.26741676      1.46920876
C       4.36874293      0.50671346      1.47499842
C       4.03832406     -0.72278213      0.95924692
O       2.71984539     -0.76650239      0.63803694
N       0.06136540     -0.11793458     -0.13792213
O       0.81311475     -0.92790346     -1.02835138
C      -1.34243355     -0.12963426     -0.38933983
C      -2.25930677      0.57833465      0.39976765
C      -3.63390883      0.53136136      0.13382897
C      -4.11901173     -0.23001574     -0.92414271
C      -3.23036217     -0.94803439     -1.71569033
C      -1.85793477     -0.89972962     -1.44775945
H       3.03724909      2.28373361      1.81418132
H       5.34623159      0.81398480      1.82006289
H       4.59782702     -1.62903313      0.77076395
H       1.34306674     -1.46759743     -0.40988604
H      -1.94328093      1.17651285      1.24857732
H      -4.32265732      1.09259096      0.76068747
H      -5.18555068     -0.26391382     -1.12939275
H      -3.59907097     -1.54623684     -2.54486821
H      -1.19498179     -1.47109430     -2.09319792
