18
Clc1ccc2ccc(Cl)cc2c1
Cl     -3.30281685     -2.21856668     -1.35348511
C      -2.12814780     -1.14348739     -0.70071471
C      -2.54083922     -0.00232418     -0.01987604
C      -1.58851836      0.87053864      0.51011796
C      -0.21693998      0.60865230      0.36315669
C       0.75162536      1.47746891      0.89083876
C       2.11235039      1.20450561      0.73716129
C       2.51414784      0.06051647      0.05455111
Cl      4.19153864     -0.27485836     -0.13422402
C       1.56937969     -0.81604660     -0.47759926
C       0.19765589     -0.55454789     -0.33087589
C      -0.77128454     -1.42310880     -0.85840972
H      -3.59869597      0.21459349      0.10241383
H      -1.92709334      1.75869259      1.03988870
H       0.45334832      2.37607692      1.42716142
H       2.84963354      1.88700256      1.15150479
H       1.90444017     -1.70467087     -1.00766948
H      -0.46978378     -2.32043670     -1.39394032
