9
Cl/C=C\CCl
Cl      1.61240484      1.57081678      0.92877545
C       1.39137112     -0.00678470      0.30500711
C       0.24369810     -0.49198232     -0.17909375
C      -1.06707596      0.21985513     -0.27472845
Cl     -2.30394623     -0.70675331      0.60483285
H       2.30703652     -0.58508244      0.34415182
H       0.24931875     -1.51431869     -0.55238872
H      -1.38113787      0.28572741     -1.32047648
H      -1.05166927      1.22852214      0.14392016
