32
CC(C)CC1CC(C)(O)CCO1
C       2.23977857      0.52339566     -1.39482582
C       2.49884382     -0.26813131     -0.11562577
C       3.90938888      0.04171091      0.39869438
C       1.47306848      0.00693181      1.00518837
C      -0.00568308     -0.31779234      0.71834548
C      -0.77392402      0.87430869      0.13535624
C      -2.22608567      0.50587594     -0.19871080
C      -3.09456801      0.39282560      1.05948771
O      -2.79347785      1.54667810     -1.00332817
C      -2.25300290     -0.78413085     -1.02364251
C      -1.43225244     -1.88532565     -0.37104192
O      -0.09243383     -1.45592095     -0.13894010
H       3.05747391      0.38512215     -2.11082803
H       2.15148835      1.59525247     -1.18921249
H       1.32560837      0.18543021     -1.89105045
H       2.47213829     -1.33641931     -0.36488173
H       4.01441048      1.10120758      0.65626916
H       4.13777194     -0.54954423      1.29183698
H       4.66243993     -0.19911194     -0.35928725
H       1.56298121      1.04088823      1.36229715
H       1.76974810     -0.62325192      1.85606906
H      -0.45917888     -0.58391595      1.68212520
H      -0.29778929      1.22737098     -0.78524362
H      -0.74511584      1.72643409      0.82603293
H      -2.76032750     -0.39515707      1.73934937
H      -4.13785927      0.19123507      0.78995982
H      -3.09903154      1.33940968      1.61234772
H      -2.71988074      2.38337567     -0.51287355
H      -1.83732531     -0.57219980     -2.01820275
H      -3.28317406     -1.11935637     -1.19265776
H      -1.38871764     -2.75452874     -1.03531171
H      -1.87531245     -2.22266637      0.57230486
