22
COc1ccc(C(=O)O)cc1C(=O)O
C      -3.36129356     -0.01542152      0.85454264
O      -2.26827111      0.77881011      0.41271961
C      -1.06943303      0.15514411      0.19860484
C      -0.91894700     -1.23472816      0.11793079
C       0.33306042     -1.80154336     -0.14536828
C       1.45318372     -0.98736259     -0.33691789
C       2.75661008     -1.63821749     -0.61223744
O       2.94652474     -2.83643091     -0.70604741
O       3.76005806     -0.75577937     -0.75301005
C       1.31491711      0.40120052     -0.26330216
C       0.05828180      0.97323043      0.00267159
C      -0.04896374      2.45040288      0.10713026
O      -0.77906447      3.09873285      0.83041256
O       0.80454306      3.06214579     -0.73833111
H      -4.18662600      0.65938523      1.10120945
H      -3.10713440     -0.57625908      1.76020134
H      -3.70483736     -0.68357125      0.05840714
H      -1.76078428     -1.90909333      0.24280881
H       0.42748850     -2.88506677     -0.20483632
H       4.54662298     -1.31401479     -0.92876610
H       2.18122683      1.04385537     -0.40483522
H       0.62283766      4.01458134     -0.59298705
