8
CC(=O)O
C      -0.89624611      0.35162856      0.08080369
C       0.37872586     -0.41397342      0.21066735
O       0.49455980     -1.57927531      0.54834202
O       1.45777678      0.33045269     -0.09351926
H      -1.73659579     -0.29905546      0.33878594
H      -1.02126602      0.69093014     -0.95039086
H      -0.88947551      1.20176941      0.76733915
H       2.21252099     -0.28247661      0.03085549
