20
O=C(O)[C@H]1CC[C@H](C(=O)O)SS1
O       3.32778938     -1.85147719     -0.22364491
C       2.92217533     -0.75508683      0.12459559
O       3.77663695      0.29260454      0.15642661
C       1.50628390     -0.34749859      0.49335874
C       0.76290143      0.10267923     -0.77281833
C      -0.65151047      0.65641098     -0.54040401
C      -1.66384727     -0.35376953      0.02450718
C      -3.07051774      0.21181466      0.09881161
O      -4.10357969     -0.42094674     -0.06203837
O      -3.13374748      1.52227904      0.41058447
S      -1.16936857     -0.88494327      1.69695528
S       0.64386110     -1.75005870      1.28082183
H       4.63782130     -0.09928447     -0.10434162
H       1.56861842      0.46321867      1.22860107
H       0.71661881     -0.71941301     -1.50027231
H       1.35128420      0.89068470     -1.26204229
H      -0.58205358      1.54093277      0.10716374
H      -1.03044973      1.02502001     -1.50308337
H      -1.71323495     -1.22730502     -0.63686645
H      -4.09568137      1.70413876      0.47441880
