59
CC(=O)OCC(=O)[C@H]1CC[C@H]2[C@@H]3CCC4=CC(=O)CC[C@]4(C)[C@H]3CC[C@]12C
C       6.71182212      2.26709039     -0.66405360
C       5.38816644      1.60623538     -0.89525215
O       4.30657504      2.10070075     -0.60862857
O       5.56156699      0.40344885     -1.50753629
C       4.35557276     -0.33869819     -1.67224331
C       3.86055742     -0.97161953     -0.37101461
O       4.57701995     -1.04235480      0.62927265
C       2.44291394     -1.53524823     -0.39610365
C       2.27542276     -2.80230451      0.47767972
C       0.85472611     -2.74161397      1.06508896
C       0.19311149     -1.59959036      0.30219501
C      -1.08506937     -0.97260884      0.87016259
C      -2.18396007     -2.02466198      1.06940588
C      -3.46363236     -1.39170117      1.60010250
C      -3.94564739     -0.26282866      0.71995921
C      -5.22745222     -0.24062903      0.31253547
C      -5.78418115      0.89889603     -0.45115393
O      -6.94701748      0.85375484     -0.84378321
C      -4.91434787      2.11203863     -0.64421156
C      -3.45828781      1.69972276     -0.80535558
C      -2.91940914      0.82093790      0.36280293
C      -2.70938597      1.71481639      1.60530631
C      -1.57812678      0.13815540     -0.10873293
C      -0.44737453      1.14429026     -0.45343386
C       0.86160028      0.46900685     -0.90012201
C       1.33823628     -0.57934710      0.11406062
C       1.77259727      0.12109158      1.42660099
H       7.09307442      2.66943132     -1.60546011
H       7.42033141      1.54897337     -0.24042366
H       6.58798892      3.08212516      0.05580327
H       3.57632320      0.28566891     -2.11989328
H       4.56814469     -1.15407483     -2.37054898
H       2.23311302     -1.82929790     -1.43448977
H       2.39626968     -3.69845825     -0.14207899
H       3.01209754     -2.87386431      1.28459904
H       0.89164864     -2.53872453      2.14114402
H       0.32791058     -3.69103203      0.92471008
H      -0.07093592     -2.00904468     -0.68766692
H      -0.86720914     -0.53350137      1.84960919
H      -1.85014207     -2.78962376      1.78015126
H      -2.39129528     -2.53927568      0.12213518
H      -4.22719543     -2.17254952      1.69687674
H      -3.28982255     -1.00512480      2.61141305
H      -5.93829259     -1.02118247      0.56041927
H      -5.24219834      2.63228065     -1.55123823
H      -5.05509109      2.78708324      0.20590298
H      -3.36771684      1.14516540     -1.75016377
H      -2.85209526      2.60651621     -0.91963665
H      -2.11055397      2.60055710      1.36829014
H      -3.66401498      2.07424363      2.00715079
H      -2.20310683      1.18454652      2.41796844
H      -1.80976960     -0.37778377     -1.05518819
H      -0.76969045      1.80662617     -1.26440313
H      -0.23888254      1.78994171      0.40546285
H       0.69613133     -0.00099177     -1.87791118
H       1.62743740      1.23745619     -1.05185698
H       2.17924964     -0.58087597      2.16146170
H       0.95190682      0.65104165      1.91678333
H       2.55038887      0.86676876      1.22816366
