43
CN/C(=C/[N+](=O)[O-])NCCSCc1ccc(CN(C)C)o1
C      -4.81338027      1.37359272     -2.48886560
N      -3.90454648      1.05344819     -1.40598135
C      -3.72423952     -0.19093316     -0.81492326
C      -4.15056601     -1.31158154     -1.43505966
N      -3.98714950     -2.63652171     -0.89387329
O      -4.53573255     -3.54437959     -1.53345994
O      -3.31627537     -2.80543645      0.13361697
N      -3.12755331     -0.15225397      0.43621568
C      -1.89389560      0.59625789      0.70346544
C      -1.48823317      0.49546376      2.17888689
S      -1.33386923     -1.20678506      2.84516957
C      -0.08813956     -1.90710175      1.71444769
C       1.20443340     -1.18412144      1.79181419
C       2.24342197     -1.19462052      2.69966692
C       3.20892705     -0.28240887      2.21364233
C       2.70568599      0.22951135      1.03531847
C       3.22256872      1.22016255      0.04658880
N       4.53854546      0.84130758     -0.50287037
C       5.10394267      1.96071658     -1.25803399
C       4.42982971     -0.33596195     -1.37043323
O       1.48129862     -0.31491775      0.77606304
H      -5.84705561      1.14651743     -2.20972045
H      -4.55288584      0.82315130     -3.39806432
H      -4.74784487      2.44197469     -2.71674626
H      -3.90049989      1.76360537     -0.67612027
H      -4.63744085     -1.36106898     -2.39450930
H      -3.05248763     -1.09222363      0.85230543
H      -1.09384437      0.22808619      0.05295988
H      -2.03558137      1.65657578      0.46467952
H      -2.25122683      0.99072999      2.79048452
H      -0.55150133      1.03513231      2.35094815
H      -0.47798563     -1.92397885      0.69265707
H       0.06657635     -2.95174098      2.00537592
H       2.29324457     -1.78925203      3.60160235
H       4.16351190     -0.02891165      2.65386337
H       2.49143032      1.37467958     -0.75799317
H       3.31159639      2.17641677      0.57898865
H       6.09595962      1.70284868     -1.64560790
H       4.46894191      2.25397704     -2.10190980
H       5.23975847      2.83383190     -0.60959302
H       4.08206215     -1.21250877     -0.81341728
H       3.74773558     -0.16811407     -2.21215027
H       5.41246394     -0.60316488     -1.77580156
