38
CCN1CCOc2cc(COc3ccccc3)cnc21
C       4.06556305     -1.62038700      1.64913801
C       4.16344136     -0.10186824      1.70705608
N       3.72683019      0.54106943      0.47132599
C       4.54473191      0.40846015     -0.72841155
C       4.06056342      1.41015301     -1.77492469
O       2.70543836      1.15366757     -2.16801449
C       1.88935854      0.89643595     -1.08937211
C       0.51978846      0.92373559     -1.34846499
C      -0.38220850      0.66201888     -0.31887073
C      -1.86811629      0.72932258     -0.53695627
O      -2.48608231     -0.39322933      0.09046799
C      -3.84940009     -0.47441709      0.02044217
C      -4.69763601      0.43598093     -0.61185769
C      -6.08080019      0.22785209     -0.60451989
C      -6.62068290     -0.88810580      0.03266873
C      -5.77856679     -1.79955275      0.66420515
C      -4.39847659     -1.59122912      0.65655402
C       0.15429901      0.39457450      0.93418398
N       1.48002146      0.35430181      1.21095313
C       2.35215083      0.58793715      0.20508725
H       4.40725757     -2.05432626      2.59427944
H       3.03825844     -1.95559922      1.47681750
H       4.69010836     -2.02896408      0.84838560
H       3.60265968      0.28013447      2.56891161
H       5.20878219      0.17356026      1.89392922
H       4.47143523     -0.61279538     -1.12283597
H       5.59543748      0.60826076     -0.49100570
H       4.13163024      2.44201888     -1.40810667
H       4.68089214      1.33494354     -2.67407278
H       0.17271053      1.15317407     -2.35179474
H      -2.23519445      1.66720767     -0.10199075
H      -2.08312942      0.70890525     -1.61240822
H      -4.32107896      1.31695343     -1.12010015
H      -6.73829465      0.93929887     -1.09804833
H      -7.69587580     -1.04699704      0.03644420
H      -6.19275622     -2.67203261      1.16229026
H      -3.74418442     -2.30589858      1.15015576
H      -0.48887486      0.19543566      1.78845965
