43
C[C@H]1C[C@H](C)C(=O)[C@H]([C@H](O)CC2CC(=O)NC(=O)C2)C1
C      -2.34999743      2.21317613     -1.66038435
C      -2.71276594      1.62415630     -0.29483006
C      -3.74730314      0.49327249     -0.41339946
C      -3.16777511     -0.79710630     -1.00259986
C      -4.21513069     -1.90685721     -1.00721133
C      -1.93259039     -1.18759709     -0.19914137
O      -1.80714364     -2.29347617      0.32759941
C      -0.83993022     -0.12462468     -0.11159897
C       0.36837206     -0.66257152      0.68622495
O       0.00751916     -0.90133165      2.04547731
C       1.56747467      0.30167150      0.67027472
C       2.80655006     -0.20612941      1.45243490
C       3.42657761     -1.48020638      0.87779139
C       4.06473215     -1.22816598     -0.46647524
O       4.03393449     -2.04917072     -1.37812572
N       4.70800507     -0.02616977     -0.61343813
C       4.56508950      1.08270762      0.18035735
O       4.98663868      2.17805228     -0.17984849
C       3.89431699      0.87141667      1.51755294
C      -1.46833951      1.14774528      0.47765542
H      -3.24441688      2.59959829     -2.16074341
H      -1.64908649      3.04682886     -1.54493083
H      -1.88799662      1.47875153     -2.32582109
H      -3.17255551      2.43483802      0.28603038
H      -4.59885004      0.83038098     -1.01732338
H      -4.14124136      0.28554509      0.59103264
H      -2.84359906     -0.63372849     -2.03688604
H      -3.80595461     -2.82621112     -1.44006852
H      -5.08858552     -1.61546122     -1.59969212
H      -4.55395882     -2.14218510      0.00781244
H      -0.50262190      0.06253642     -1.13845668
H       0.67690203     -1.62089471      0.25402698
H      -0.62603003     -1.64939850      2.02763594
H       1.83324804      0.52798382     -0.36887277
H       1.26714303      1.24805495      1.13622473
H       2.49263135     -0.41584937      2.48295648
H       4.21101021     -1.85544714      1.54655584
H       2.68448931     -2.27712167      0.77719292
H       5.12082692      0.14002658     -1.52100702
H       3.46802349      1.82398940      1.85163231
H       4.67276154      0.58590858      2.23511612
H      -0.73487925      1.96109157      0.50164396
H      -1.76549420      0.96197186      1.51823275
