14
OC(=S)c1cccnc1
O      -2.68164738      0.64712428     -0.32096586
C      -1.88626311     -0.41220612     -0.08250343
S      -2.66422954     -1.86353016      0.09508999
C      -0.45283140     -0.07562225     -0.02365788
C       0.52988825     -1.04271528      0.21453007
C       1.87341384     -0.66993190      0.26021280
C       2.19560538      0.66263738      0.06583736
N       1.27919182      1.62533476     -0.16632380
C      -0.02095006      1.23526619     -0.20569718
H      -3.60442948      0.33850783     -0.34366834
H       0.27301665     -2.08763922      0.36661121
H       2.65034554     -1.40443191      0.44354932
H       3.22791576      1.00055557      0.09243770
H      -0.71902627      2.04665083     -0.39545196
