16
C=C(C)C(=C)C
C      -0.61697568     -0.59638416     -1.77072104
C      -0.55260803     -0.18919303     -0.49200316
C      -1.78592392      0.23126271      0.25984331
C       0.71559024     -0.13529129      0.22992162
C       1.52239100     -1.20624340      0.31477546
C       1.08014255      1.17390432      0.87508226
H      -1.56027619     -0.63624443     -2.30582759
H       0.27098556     -0.89207400     -2.32137874
H      -1.76131948      1.30284192      0.48342722
H      -2.69861626      0.03706147     -0.31437580
H      -1.87021460     -0.32121040      1.20201272
H       1.26019588     -2.15640904     -0.14082519
H       2.46477168     -1.16455545      0.85136212
H       2.09808365      1.15854465      1.28006134
H       1.03215130      1.98977171      0.14564921
H       0.40162229      1.40421842      1.70299624
