49
Cn1nc(-c2cnc3[nH]cc(C(=O)N[C@]4(C)C[C@H](N)C4)c3n2)c2ccc(F)cc21
C       5.66147213     -0.41226979      2.01931027
N       4.41204268     -0.24696988      1.31350323
N       3.94398751      0.99251406      1.08183654
C       2.77489597      0.79920617      0.44300625
C       1.92839337      1.92376835      0.03354131
C       2.49324908      3.17626869     -0.21921969
N       1.79941481      4.26942323     -0.63973318
C       0.48930271      3.98136043     -0.76692140
N      -0.48033619      4.84875776     -1.18127961
C      -1.69410615      4.20926912     -1.18566391
C      -1.51179755      2.90101771     -0.75112368
C      -2.57823507      1.92048461     -0.60075382
O      -3.71512138      2.13005132     -1.01266258
N      -2.21004489      0.76153923      0.05425651
C      -3.13147083     -0.37158242      0.30080298
C      -4.19983418      0.01370693      1.31776892
C      -2.38217084     -1.69407895      0.65026602
C      -3.37036111     -2.42847932     -0.27749760
N      -2.62510560     -3.32512999     -1.15202633
C      -3.60955899     -1.08718895     -0.99919678
C      -0.11894004      2.75741013     -0.50524140
N       0.59467896      1.67333201     -0.09020331
C       2.53376599     -0.59740487      0.23685699
C       1.53363479     -1.37294175     -0.38876560
C       1.64122367     -2.76829079     -0.38246245
C       2.72667671     -3.38142644      0.22815752
F       2.80858753     -4.71900508      0.22382741
C       3.73939457     -2.64615988      0.84327418
C       3.61587192     -1.24933869      0.82605729
H       6.31278908     -1.06125981      1.42852709
H       6.13767741      0.56271411      2.15314264
H       5.44725961     -0.86114864      2.99233701
H       3.56121371      3.33877338     -0.09813178
H      -0.30574179      5.80957569     -1.44051086
H      -2.59542023      4.73000740     -1.48532677
H      -1.22971920      0.68640690      0.31940663
H      -3.74383405      0.35910823      2.25226238
H      -4.84854990     -0.83425754      1.56304512
H      -4.84589167      0.81280785      0.94085805
H      -1.33414433     -1.71140126      0.33096818
H      -2.41908714     -2.00140245      1.70045805
H      -4.24907624     -2.85974578      0.21110214
H      -3.15509236     -3.62475458     -1.97069429
H      -2.32180223     -4.18259012     -0.69108756
H      -4.64787166     -0.89625309     -1.28838833
H      -2.97097419     -0.89896732     -1.87243122
H       0.68505140     -0.89944135     -0.87593964
H       0.87482646     -3.37556809     -0.85571216
H       4.57887775     -3.15044651      1.30718088
