21
C=CCOC(CO)CO
C       2.89987316      0.87083146      2.09949492
C       1.97106290      1.21915575      1.19910302
C       1.27147373      0.26570457      0.28205798
O      -0.12667176      0.42193355      0.51350603
C      -0.91727851     -0.66911817     -0.00378457
C      -2.33120227     -0.45922065      0.55060654
O      -2.84775711      0.80420205      0.13141884
C      -0.94096727     -0.67627864     -1.54094154
O       0.25961956     -1.26206731     -2.05124329
H       3.21256117     -0.16071206      2.22726606
H       3.36353302      1.61910638      2.73480994
H       1.68686275      2.26469494      1.10952233
H       1.50541231      0.53536832     -0.75222312
H       1.58528215     -0.76666568      0.47328320
H      -0.51825944     -1.61441765      0.38369626
H      -3.01500320     -1.24330774      0.21196821
H      -2.31800097     -0.45770183      1.64563265
H      -2.15744419      1.45096138      0.38143605
H      -1.01215384      0.34117621     -1.93892747
H      -1.77591731     -1.27628932     -1.91615178
H       0.20497513     -1.20735555     -3.02172718
