26
CNc1nc(OC)ccc1N.[Cl-].[Cl-].[H+].[H+]
C      -1.50354789     -2.33371044      0.11513910
N      -1.80252410     -0.90639906      0.01264887
C      -0.76491318      0.06785113     -0.03584068
N       0.52475900     -0.30407828      0.01181093
C       1.54049412      0.58912163     -0.03151982
O       2.87406636      0.18696893      0.01895415
C       3.14454316     -1.20373424      0.11843632
C       1.23474407      1.93094742     -0.12828014
C      -0.08385941      2.31807037     -0.17747095
C      -1.12998936      1.39363442     -0.13253594
N      -2.48423942      1.79444183     -0.18327145
Cl      0.00000000      0.00000000      0.00000000
Cl      0.00000000      0.00000000      0.00000000
H       0.00000000      0.00000000      0.00000000
H       0.00000000      0.00000000      0.00000000
H      -0.50306944     -2.47095404     -0.38927018
H      -1.38276199     -2.66869389      1.14862479
H      -2.25602108     -2.89368198     -0.46612894
H      -2.80679486     -0.64669826     -0.02242241
H       3.19238024     -1.55133854      1.15641929
H       4.11298132     -1.36898268     -0.39222637
H       2.36258174     -1.81221398     -0.38970546
H       2.05493982      2.66294025     -0.16399737
H      -0.33708776      3.35008713     -0.25220182
H      -3.15683781      1.23591225     -0.73720790
H      -2.82984353      2.63051005      0.31592716
