12
Fc1ccccc1
F       2.53682906     -0.92435024     -0.04781798
C       1.27837223     -0.46580374     -0.02409411
C       0.22158894     -1.36864846      0.02176418
C      -1.08865974     -0.89156522      0.04646322
C      -1.32898293      0.48424460      0.02504703
C      -0.26101559      1.38334975     -0.02102645
C       1.04901746      0.90567409     -0.04570877
H       0.42553798     -2.43423300      0.03788719
H      -1.92135713     -1.58928188      0.08231883
H      -2.35062315      0.85650055      0.04430325
H      -0.45052471      2.45353245     -0.03761422
H       1.88981757      1.59058110     -0.08152216
