23
Cc1ncc2nc(C)c(C)nc2n1
C      -4.15901635     -1.35386186      0.27131029
C      -2.86886655     -0.70198683     -0.11633409
N      -2.89296762      0.18526076     -1.12052885
C      -1.71069426      0.76712959     -1.41441423
C      -0.52389909      0.52074373     -0.76547757
N       0.63838815      1.13664383     -1.10449701
C       1.73000572      0.80020184     -0.37993697
C       3.01719972      1.47338379     -0.74535582
C       1.64165372     -0.12998858      0.65328764
C       2.83185421     -0.52385396      1.47455391
N       0.46453421     -0.73117985      0.97094807
C      -0.62852099     -0.41599756      0.26939599
N      -1.77510842     -1.01444638      0.59370924
H      -4.82084556     -1.44435302     -0.59543360
H      -4.65956723     -0.75359741      1.03651750
H      -3.97889008     -2.35662998      0.67065036
H      -1.74045340      1.48071807     -2.23298103
H       3.40197565      2.04884944      0.10207483
H       3.76264204      0.73310547     -1.05138669
H       2.86938785      2.16547076     -1.58104282
H       3.24361616      0.34717056      1.99335225
H       2.55333172     -1.26420317      2.23187488
H       3.60424040     -0.96857927      0.83971371
