36
CCCCNC(=O)NS(=O)(=O)c1ccc(C)cc1
C      -4.47384149     -0.85028168      0.98776655
C      -3.09594073     -0.69846177      1.61225942
C      -2.60094289      0.75031550      1.66605990
C      -2.48470458      1.45415322      0.31538731
N      -1.53381847      0.80835361     -0.56220859
C      -0.98181310      1.47036291     -1.61778492
O      -1.13353037      2.66215235     -1.83628711
N      -0.23102106      0.71601097     -2.50521079
S       0.34591349     -0.82101397     -2.33228988
O       0.92008256     -1.20616730     -3.60252613
O      -0.67951911     -1.61762307     -1.68884571
C       1.67599622     -0.59058285     -1.17941011
C       1.48771896     -0.88049728      0.17396572
C       2.54626601     -0.70789993      1.06742122
C       3.79082312     -0.24813754      0.61543395
C       4.93564403     -0.09789844      1.57457802
C       3.97356681      0.00935895     -0.75003252
C       2.91953407     -0.15988317     -1.64926283
H      -4.46013724     -0.60186721     -0.07753878
H      -4.81593793     -1.88610374      1.08060444
H      -5.20505157     -0.20604591      1.48603562
H      -2.37959081     -1.32697088      1.07171257
H      -3.13343852     -1.08615585      2.63759685
H      -3.27741300      1.33193542      2.30438691
H      -1.62034671      0.75855888      2.15863799
H      -3.44778303      1.49352370     -0.20370311
H      -2.16537997      2.49040021      0.47653611
H      -1.61494773     -0.19669595     -0.68947869
H       0.10638308      1.20592345     -3.32741719
H       0.53097220     -1.24126316      0.54325113
H       2.39673170     -0.93731177      2.12076669
H       5.62536620      0.68440026      1.24073381
H       4.57637623      0.18893791      2.56850998
H       5.48307282     -1.04205546      1.65410741
H       4.94188199      0.34034035     -1.12068514
H       3.07882880      0.03818923     -2.70682919
