19
COCc1ccccc1
C      -2.72544221     -0.27832882     -0.57623136
O      -2.17590214     -0.70609268      0.66378950
C      -1.23013676      0.22457177      1.19438754
C       0.11640436      0.11937441      0.52031708
C       0.80902656      1.27371056      0.12919681
C       2.06448014      1.17561627     -0.47411000
C       2.64241096     -0.07488404     -0.68596407
C       1.96764536     -1.22888506     -0.29289315
C       0.71306456     -1.13239215      0.31054682
H      -3.44839808     -1.02946114     -0.90599682
H      -3.24824189      0.67538944     -0.45545963
H      -1.94895843     -0.18850696     -1.34142600
H      -1.63645130      1.24175069      1.13894977
H      -1.09829369     -0.01149197      2.25641081
H       0.37589660      2.25804850      0.29096638
H       2.59321548      2.07556509     -0.77720673
H       3.61968795     -0.15028492     -1.15524200
H       2.41729126     -2.20491181     -0.45480729
H       0.19270127     -2.03878719      0.61477235
