14
O=[N+]([O-])c1ccccc1Cl
O      -2.72630572     -1.04373955      0.92972481
N      -2.27973850     -0.28236151      0.06155020
O      -2.94442626      0.30217183     -0.80326439
C      -0.84806752     -0.10755183      0.02337499
C      -0.06806746     -1.20117216     -0.37586620
C       1.31749821     -1.05881919     -0.43078710
C       1.90671966      0.16006421     -0.08774892
C       1.11449966      1.24097015      0.31596081
C      -0.27601856      1.11372886      0.37639256
Cl     -1.19023752      2.47311212      0.91596916
H      -0.52875362     -2.15030594     -0.64130928
H       1.94070103     -1.89577836     -0.73977356
H       2.98890883      0.26958569     -0.13048521
H       1.59328777      2.18009566      0.58626211
