20
NC(=O)CCC(N)C(=O)O
N       2.12394697      1.21278731      0.86850237
C       1.97306292      1.32179335     -0.47914185
O       2.48767365      2.23604448     -1.11174025
C       1.11434777      0.25531306     -1.12020229
C      -0.36642753      0.40823428     -0.75185728
C      -0.96689066     -0.86729250     -0.15161587
N      -2.45826439     -0.76367890     -0.10764833
C      -0.47482295     -1.12383870      1.28851083
O       0.67553461     -0.99964394      1.68093806
O      -1.49407410     -1.53137642      2.08831643
H       1.83734669      0.37649743      1.37912458
H       2.75085477      1.85620175      1.33191260
H       1.51754707     -0.72601632     -0.84599818
H       1.23354712      0.34327698     -2.20704551
H      -0.51858313      1.25195629     -0.06634992
H      -0.91096328      0.65859184     -1.67227267
H      -0.71090899     -1.75043788     -0.74732098
H      -2.70669292      0.19066103      0.17948536
H      -2.80290993     -0.82384578     -1.07132155
H      -2.30332370     -1.52522737      1.51572444
