29
CC(C(=O)O)C(C)(C)CCC(=O)O
C      -2.63385815     -0.68943121      0.78193689
C      -1.30713695      0.07462706      0.66866523
C      -1.55607517      1.47712666      0.14158499
O      -0.98231856      2.48683069      0.51883217
O      -2.46255199      1.54621289     -0.84885570
C      -0.17221280     -0.67201136     -0.11267380
C      -0.58345794     -0.96630455     -1.57395764
C       0.11971990     -2.03094202      0.56443599
C       1.15015675      0.15835071     -0.16881115
C       1.76728874      0.53261161      1.18313523
C       3.03815988      1.32238334      1.00656206
O       3.60571498      1.59734622     -0.03631682
O       3.55022305      1.71813657      2.18919321
H      -3.37549358     -0.08828142      1.32114268
H      -2.51076873     -1.62377297      1.33741197
H      -3.06445810     -0.92558852     -0.19558942
H      -0.97669995      0.21578682      1.70708374
H      -2.48178608      2.49646189     -1.08909621
H      -1.48028779     -1.59084115     -1.63015400
H      -0.77496246     -0.04550916     -2.13394024
H       0.21251233     -1.50478451     -2.10233075
H       0.29116732     -1.91683170      1.63989362
H       1.00826226     -2.50529976      0.13200874
H      -0.71102033     -2.73317853      0.43575949
H       0.98534392      1.07456214     -0.75130288
H       1.89880296     -0.40879214     -0.74062607
H       2.01575410     -0.36802222      1.75284454
H       1.07620841      1.14792890      1.76585354
H       4.35377399      2.22122572      1.94082535
