41
COCc1cnc(C2=NC(C)(C(C)C)C(=O)N2)c(C(=O)O)c1
C       6.83004899     -1.15859381      0.19810315
O       5.43415706     -1.02125412      0.43102581
C       4.86395340      0.00151734     -0.38233375
C       3.38495710      0.10432360     -0.12717847
C       2.82430557     -0.22135227      1.10475466
N       1.50389297     -0.12030530      1.39447316
C       0.68499371      0.33859001      0.40052994
C      -0.75359881      0.31784944      0.75984912
N      -1.75797714      0.48766073     -0.04542259
C      -2.97851786      0.35242527      0.81775135
C      -3.66048633      1.72072097      0.89062986
C      -3.89748640     -0.77608605      0.28799033
C      -3.18511395     -2.13397990      0.19232344
C      -4.51899201     -0.44659984     -1.07495377
C      -2.40906703      0.01997893      2.19551278
O      -3.02089739     -0.23452056      3.21813610
N      -1.06424267      0.06799515      2.05199424
C       1.15593807      0.72914956     -0.84271201
C       0.29874863      1.29171366     -1.88288976
O       0.15622720      0.84812630     -3.00498892
O      -0.20812800      2.47032177     -1.48494866
C       2.52274118      0.60003113     -1.11209067
H       7.21154587     -1.94868915      0.85035451
H       7.01892635     -1.44223033     -0.84172187
H       7.35149281     -0.22641762      0.43588198
H       5.33351358      0.96434331     -0.14956865
H       5.04054922     -0.24385643     -1.43631932
H       3.44181675     -0.59328960      1.92071710
H      -4.59932715      1.66292334      1.45207600
H      -3.02320656      2.45594750      1.39685506
H      -3.87405620      2.12092889     -0.10591002
H      -4.72404981     -0.90158040      1.00089675
H      -2.78102218     -2.44474709      1.16064503
H      -2.36318989     -2.10946126     -0.53075088
H      -3.88563639     -2.91264753     -0.12946001
H      -5.16544569      0.43420261     -1.01666922
H      -5.14165191     -1.27638657     -1.42741661
H      -3.75050254     -0.26009646     -1.83232924
H      -0.39077342     -0.14196725      2.77440892
H      -0.81226949      2.73196308     -2.21139092
H       2.90783036      0.89334897     -2.08715155
