37
CC[C@H](C)c1cccc([C@H](C)CC)c1O
C      -3.23916562      1.39056418      1.36083689
C      -2.82365267      1.50701463     -0.10063550
C      -2.45891159      0.17781983     -0.79825436
C      -3.65524778     -0.78445129     -0.86039984
C      -1.17703957     -0.43269994     -0.23829022
C      -1.23631260     -1.41422545      0.76613902
C      -0.07844388     -1.99824814      1.27772330
C       1.16893899     -1.61363755      0.79682156
C       1.28258467     -0.62999032     -0.19712498
C       2.65773059     -0.21045787     -0.70648301
C       3.37721993     -1.39735573     -1.36179480
C       3.54166354      0.40870990      0.39663461
C       2.97258077      1.70548116      0.95968701
C       0.10162956     -0.04226209     -0.69322227
O       0.25412389      0.93269324     -1.64501851
H      -4.12588406      0.76224882      1.48120082
H      -3.48413112      2.38240312      1.75543639
H      -2.43407414      0.98214722      1.97796287
H      -3.64673772      1.97813227     -0.65292899
H      -1.97819968      2.20322541     -0.16001681
H      -2.26280075      0.41468755     -1.85303321
H      -4.49332855     -0.31500491     -1.38754576
H      -4.01756349     -1.08083361      0.12807417
H      -3.39046239     -1.69761238     -1.40537715
H      -2.18861018     -1.74109185      1.17505124
H      -0.15014478     -2.75699705      2.05281058
H       2.05656007     -2.08653570      1.20998496
H       2.54877543      0.54681542     -1.49208121
H       2.76038258     -1.84222670     -2.15070471
H       4.31836726     -1.07154990     -1.81817883
H       3.61610055     -2.18451796     -0.63860035
H       3.70019696     -0.29959529      1.21845737
H       4.53285458      0.62655623     -0.02093551
H       2.02491437      1.53715414      1.47999584
H       2.80528966      2.43848510      0.16410018
H       3.67360633      2.14134537      1.67876194
H      -0.55280913      1.46381013     -1.69905275
