57
CCC(Cc1ccccc1)(C(=O)c1ccc(N2CCOCC2)cc1)N(C)C
C      -1.53317923      2.21851923     -1.78187984
C      -2.51162884      1.58327120     -0.79924476
C      -1.98560661      0.38763225      0.06808129
C      -3.08985764      0.03147647      1.15732361
C      -4.44899489     -0.48993987      0.73150320
C      -4.78570139     -1.84027006      0.90771385
C      -6.04334079     -2.32005525      0.53462677
C      -6.99008636     -1.45240835     -0.00265972
C      -6.68401577     -0.10283024     -0.15354118
C      -5.42637222      0.37612765      0.22011421
C      -0.79806919      0.99376287      0.91665426
O      -1.03515015      1.75057105      1.86831395
C       0.65884791      0.74278983      0.64175417
C       1.54178595      0.83988763      1.72379473
C       2.91606151      0.63084943      1.55089780
C       3.46635332      0.33362785      0.29525269
N       4.84768764      0.12023412      0.17662417
C       5.67342266      1.28595086      0.58308308
C       7.15533922      0.88081931      0.65857308
O       7.61864447      0.31891328     -0.57967275
C       6.84460783     -0.84595589     -0.90776876
C       5.35556685     -0.50076200     -1.06623259
C       2.57024586      0.23562994     -0.77701105
C       1.19117705      0.44628904     -0.61179983
N      -1.51349746     -0.78461199     -0.73389076
C      -2.37180015     -1.18664814     -1.84854335
C      -1.15759212     -1.96808329      0.05542781
H      -0.68667353      2.68092811     -1.26736456
H      -1.15665158      1.49838351     -2.51195423
H      -2.04030160      3.01246781     -2.34108473
H      -3.39213382      1.27608929     -1.37311218
H      -2.85622181      2.38463850     -0.13120922
H      -2.65937970     -0.67064876      1.88569725
H      -3.29827784      0.92591480      1.76345323
H      -4.07415259     -2.53377722      1.34777399
H      -6.28579365     -3.37045989      0.67259843
H      -7.97011721     -1.82420184     -0.28887926
H      -7.42788382      0.58184466     -0.55252191
H      -5.22442664      1.44014479      0.12162799
H       1.16746101      1.07159808      2.71935785
H       3.55682279      0.67920671      2.42806531
H       5.55201412      2.08429201     -0.16047380
H       5.37912614      1.68136944      1.56087407
H       7.76941266      1.76138968      0.87218127
H       7.32238555      0.15428661      1.46290903
H       7.23439403     -1.24810082     -1.84817831
H       6.99423534     -1.60533710     -0.13086087
H       5.24128030      0.19982148     -1.90309125
H       4.80670816     -1.42258260     -1.29112100
H       2.91969525      0.01070592     -1.78026631
H       0.56173819      0.36989636     -1.49106412
H      -1.89590942     -1.99626744     -2.41546049
H      -3.35212468     -1.54599919     -1.53011239
H      -2.51597323     -0.38100925     -2.57269628
H      -2.03166136     -2.52878991      0.39393558
H      -0.55499105     -1.72345483      0.93489698
H      -0.54744748     -2.64713580     -0.55168441
