8
ClC(Cl)(Cl)C(Cl)(Cl)Cl
Cl     -1.48002704     -0.91883682      1.39499099
C      -0.77682249     -0.07916773     -0.05065288
Cl     -1.27822275     -1.04629297     -1.50071886
Cl     -1.62570121      1.51835140     -0.18012756
C       0.77682247      0.07916769      0.05065269
Cl      1.48002717      0.91883832     -1.39499011
Cl      1.27822348      1.04629223      1.50071961
Cl      1.62570037     -1.51835213      0.18012611
