12
Brc1cc(Br)c(Br)cc1Br
Br     -2.70427010      1.88931491     -0.03441520
C      -1.17331181      0.76568217     -0.01497679
C       0.07759335      1.39244225      0.00221733
C       1.25111528      0.63053060      0.01720027
Br      2.89743174      1.57704374      0.03993139
C       1.17331182     -0.76568217      0.01497767
Br      2.70427011     -1.88931497      0.03441200
C      -0.07759336     -1.39244224     -0.00221556
C      -1.25111526     -0.63053058     -0.01719929
Br     -2.89743166     -1.57704372     -0.03993353
H       0.13814913      2.47913944      0.00394699
H      -0.13814924     -2.47913942     -0.00394527
