22
CC(C)CC(N)C(=O)O
C      -2.57192010      0.01603563      0.35079779
C      -1.11268874      0.47843054      0.40833424
C      -0.96167885      1.78967349     -0.35985372
C      -0.18860611     -0.64780935     -0.10534736
C       1.31102182     -0.33563797      0.01950408
N       2.06276891     -1.56423922      0.43852875
C       1.93052805      0.14012600     -1.31589159
O       1.42761150      0.91633362     -2.11029700
O       3.16024966     -0.41473030     -1.49977771
H      -2.88188090     -0.19285252     -0.67883245
H      -2.71600308     -0.89555747      0.94039173
H      -3.24013624      0.78268511      0.75734160
H      -0.86744969      0.67195701      1.46065137
H      -1.67438296      2.53708219      0.00590854
H      -1.14633792      1.64741268     -1.42969170
H       0.03898894      2.21257256     -0.23173462
H      -0.44370121     -0.89469526     -1.14421261
H      -0.42493325     -1.54364813      0.48567406
H       1.51015538      0.43813722      0.76852461
H       1.69027065     -2.35985239     -0.09312518
H       1.79899396     -1.77020016      1.40704161
H       3.29913018     -1.01122325     -0.72091368
