22
CC(=O)/N=c1/sc(S(N)(=O)=O)nn1C
C      -3.74764329      1.43475239      0.99880992
C      -2.79153982      0.27266378      1.01469872
O      -3.14595588     -0.85508795      0.68935391
N      -1.55410127      0.59719414      1.48278901
C      -0.50722840      0.27329634      0.81739922
S       1.01883717      0.73398788      1.59710707
C       1.86488181     -0.00457362      0.24916407
S       3.63791246     -0.06066593      0.15965014
N       4.09203739     -0.89232138     -1.24453167
O       4.10297419     -0.88484858      1.25415307
O       4.10437607      1.29531586     -0.03466098
N       1.13198614     -0.51551042     -0.70007451
N      -0.19986736     -0.33578574     -0.38617399
C      -1.14177471     -0.92934497     -1.31542922
H      -3.29996574      2.27645221      0.46324969
H      -3.98535677      1.72841043      2.02441331
H      -4.66866170      1.14625924      0.48461769
H       4.59996937     -1.73966378     -0.98503122
H       4.64242752     -0.27199435     -1.84059160
H      -1.52771507     -1.87405640     -0.92197265
H      -1.96720134     -0.24522436     -1.53231900
H      -0.65839077     -1.14925480     -2.27462098
