27
CC(C)c1cccc2ccccc12
C       2.90258128     -0.82784671      0.83608034
C       1.82638234      0.19377907      0.44078052
C       2.39643148      1.19344129     -0.56868041
C       0.53240452     -0.41992903     -0.09724780
C       0.59561040     -1.59211341     -0.87616423
C      -0.55533631     -2.18625587     -1.38306389
C      -1.79696273     -1.61570224     -1.13267470
C      -1.90701223     -0.43680781     -0.38523871
C      -3.17639186      0.12418299     -0.16463925
C      -3.32596289      1.30328418      0.56052062
C      -2.20456871      1.93856127      1.07146080
C      -0.93549701      1.39027942      0.86205389
C      -0.74299874      0.18740760      0.13833228
H       3.33796538     -1.33117048     -0.03339929
H       2.49370153     -1.59154878      1.50662673
H       3.72411479     -0.32800249      1.36177838
H       1.60257128      0.72696213      1.37100451
H       3.29551948      1.67647049     -0.17113334
H       1.67194880      1.98086898     -0.80314824
H       2.66652810      0.70141906     -1.50998642
H       1.54888166     -2.06090755     -1.10528135
H      -0.48330617     -3.09414328     -1.97592991
H      -2.68408234     -2.09761239     -1.53771981
H      -4.06681712     -0.35725452     -0.56376713
H      -4.31468686      1.72419922      0.72011020
H      -2.30960769      2.86308281      1.63299793
H      -0.09141038      1.93535607      1.27448196
