17
COc1ncnc2nc[nH]c12
C       2.68090690     -0.96727113     -0.54929102
O       1.73542020      0.09837582     -0.54287181
C       0.49975843     -0.29090990     -0.07380420
N       0.26197493     -1.55606710      0.32416207
C      -0.97847739     -1.84897682      0.76974307
N      -2.03741294     -1.03360358      0.87468924
C      -1.76758821      0.22023455      0.47009582
N      -2.64923803      1.26819002      0.46205514
C      -1.96228192      2.28784263     -0.00637038
N      -0.67234596      1.93843445     -0.30065342
C      -0.53124406      0.61441475     -0.00044035
H       3.62605924     -0.57147606     -0.93342316
H       2.36261404     -1.77595292     -1.21638745
H       2.86365641     -1.34152961      0.46403391
H      -1.13895400     -2.87643565      1.08320947
H      -2.34020031      3.29138268     -0.15312342
H       0.04735270      2.54334788     -0.67162351
