20
O=C(O)[C@H]1CC[C@H](C(=O)O)[Se][Se]1
O       3.39985554      1.79907283      0.49331486
C       2.96343797      0.71986587     -0.01332122
O       3.80282022     -0.38212274      0.07254417
C       1.63649786      0.62613317     -0.66240384
C       0.81497812     -0.41481684      0.09414638
C      -0.58055993     -0.51932190     -0.44357806
C      -1.61583928     -0.02408814      0.56313404
C      -2.94014329      0.03781487     -0.06495352
O      -3.60395458      1.12558016     -0.15814244
O      -3.58718670     -1.08035192     -0.61269210
Se     -1.09903487      1.78615865      1.05858529
Se      0.72827367      2.32714382     -0.38512044
H       3.63339481     -1.12911390      0.73218004
H       1.71290870      0.37495720     -1.73724800
H       1.33239209     -1.37350850      0.07652388
H       0.77541193     -0.06134738      1.15357621
H      -0.66557438      0.03701877     -1.39327520
H      -0.77870329     -1.60423508     -0.68193691
H      -1.57070806     -0.71365128      1.43015169
H      -4.35826655     -1.53118763     -0.17239182
