22
COc1ccc(OC)c(N)c1
C       3.75825373     -0.31408467      0.03394179
O       2.67368009     -1.23381555      0.04544359
C       1.41421733     -0.70290065      0.10549964
C       0.38435857     -1.64473570      0.07794673
C      -0.95460859     -1.24458768      0.10691267
C      -1.27488640      0.11166084      0.17696673
O      -2.55109397      0.62157878      0.21233743
C      -3.61058404     -0.28717250     -0.05720022
C      -0.24122096      1.06704684      0.26072072
N      -0.54270860      2.44585364      0.21828779
C       1.09583628      0.65346134      0.18125408
H       3.71583522      0.33582199     -0.84636212
H       3.78851005      0.27204049      0.95838319
H       4.68570954     -0.89196704     -0.02378837
H       0.62743081     -2.70323252      0.02042091
H      -1.71655750     -2.01501858      0.07338956
H      -4.54164118      0.28672966     -0.09265529
H      -3.48215769     -0.77291544     -1.03034256
H      -3.70660572     -1.02579286      0.74516703
H       0.11925960      3.02421256      0.72239085
H      -1.50931446      2.60405152      0.50148209
H       1.86828788      1.41376554      0.17419498
