15
Cc1ccc(Cl)cc1Cl
C      -2.21728834     -0.38965471      0.05715811
C      -0.73583728     -0.13740638      0.01798232
C       0.14409586     -1.21755104     -0.15516384
C       1.52467357     -1.01076267     -0.19511851
C       2.03604383      0.27754539     -0.06226561
Cl      3.73754175      0.52888302     -0.11193620
C       1.18177275      1.36240337      0.11024364
C      -0.19888251      1.15440881      0.15005494
Cl     -1.21577577      2.53482049      0.36625305
H      -2.63361617     -0.07073322      1.01806739
H      -2.71735897      0.14549639     -0.75643213
H      -2.44585169     -1.45425819     -0.06178139
H      -0.24017141     -2.23053384     -0.26046531
H       2.19298499     -1.85760554     -0.32984900
H       1.58766938      2.36494813      0.21325254
