24
CC1CC(NC(N)=O)NC(=O)N1
C      -2.74969719     -0.99637664     -1.01957502
C      -1.75144610      0.03004946     -0.49878370
C      -0.32952416     -0.51619738     -0.52400984
C       0.56948203      0.53564671      0.11803317
N       1.92869133      0.08915667      0.24980242
C       2.73018714      0.00870165     -0.84710185
N       3.93228108     -0.55260449     -0.56591012
O       2.43911619      0.38721295     -1.97064699
N       0.09289038      0.87885159      1.42389393
C      -1.22467644      1.01035549      1.71548994
O      -1.60426478      1.58326802      2.72920067
N      -2.10156130      0.44584996      0.84606486
H      -2.75928235     -1.89501689     -0.39276501
H      -3.76512902     -0.58525575     -1.01937927
H      -2.50506194     -1.29514937     -2.04402818
H      -1.81048359      0.92859510     -1.12583523
H      -0.01721653     -0.73624619     -1.55107946
H      -0.27062360     -1.45696306      0.04037969
H       0.56116337      1.45253486     -0.48532397
H       2.08852006     -0.61802720      0.95020604
H       4.34140360     -0.30248362      0.32319502
H       4.57900511     -0.50302253     -1.34439639
H       0.69242978      1.43636237      2.01431007
H      -3.06620306      0.67075829      1.05957149
