29
Cc1ccc(Oc2ccc(C)cc2)cc1
C       4.97583009      0.98242461     -0.33035521
C       3.64431934      0.30904622     -0.17451395
C       2.62477764      0.53036646     -1.10967552
C       1.39543429     -0.12067336     -0.98453801
C       1.17787610     -0.99414066      0.08254365
O       0.00410557     -1.69456184      0.24406314
C      -1.17306803     -0.99044333      0.13049871
C      -2.19167557     -1.57668459     -0.61906233
C      -3.42341871     -0.93155929     -0.74660325
C      -3.64579879      0.30190698     -0.12078851
C      -4.98058097      0.97810008     -0.22926355
C      -2.62815381      0.86440893      0.66085545
C      -1.39567257      0.22000729      0.78943518
C       2.19852189     -1.24954685      0.99694629
C       3.42712460     -0.59823170      0.87057440
H       4.86364975      1.96521915     -0.80018267
H       5.63608287      0.36721654     -0.94929440
H       5.44959828      1.14093981      0.64413014
H       2.78325262      1.20798235     -1.94559449
H       0.61951190      0.05199214     -1.72499269
H      -2.02610337     -2.53411040     -1.10499819
H      -4.20953711     -1.39936880     -1.33487230
H      -5.45418945      0.75509011     -1.19111915
H      -5.63852124      0.63874703      0.57662311
H      -4.87342112      2.06602978     -0.16498590
H      -2.79055371      1.80655160      1.17953847
H      -0.62124258      0.66285976      1.40933990
H       2.03697409     -1.95368273      1.80830721
H       4.21487800     -0.80588531      1.59113931
