25
CN(C)C(C)(C)CO.[Cl-].[H+]
C      -1.75560493      0.50517038     -0.93321202
N      -1.01906661      0.06323913      0.17068311
C      -1.51739361      0.28515828      1.45487688
C       0.33812073     -0.24360426     -0.00189985
C       0.97796686     -0.86978068      1.18547002
C       0.48963260     -1.18977570     -1.19166414
C       1.15186183      1.00496424     -0.35116495
O       2.47088293      0.57501793     -0.49748764
Cl      0.00000000      0.00000000      0.00000000
H       0.00000000      0.00000000      0.00000000
H      -2.79595185      0.07097506     -0.84964991
H      -1.90390160      1.59959150     -0.91464166
H      -1.29294611      0.14317430     -1.87579878
H      -1.04839150     -0.31981340      2.22529658
H      -1.49574043      1.36153263      1.79694697
H      -2.61723215      0.02471361      1.45971295
H       2.05717328     -1.05787501      0.91055197
H       0.99622782     -0.26327794      2.08976279
H       0.57882711     -1.89242870      1.41057778
H       0.66716391     -0.58425220     -2.10737792
H      -0.46771358     -1.73492415     -1.37527438
H       1.28074273     -1.93476532     -1.02106354
H       0.81294882      1.38334153     -1.34849936
H       1.00542757      1.73390345      0.45676492
H       3.08696619      1.33971532     -0.69290980
