49
CCN(CC)c1ccc(N=Nc2c(Br)cc([N+](=O)[O-])cc2[N+](=O)[O-])c(NC(C)=O)c1
C      -3.59161394      2.64559829      2.97340444
C      -4.20731128      1.71145453      1.94114875
N      -3.58449239      0.37929077      1.99319876
C      -4.23740170     -0.59329864      2.87906262
C      -5.27133994     -1.41378725      2.12125643
C      -2.44031044      0.07163026      1.26229298
C      -1.92078244     -1.22966981      1.20390981
C      -0.76976921     -1.54220246      0.47128033
C      -0.07727951     -0.55499450     -0.23308523
N       1.06073570     -0.90661814     -0.99362882
N       2.03439820     -1.13163645     -0.23924652
C       3.14503994     -1.55687788     -0.99745768
C       3.41660342     -2.92480461     -1.18829679
Br      2.27790339     -4.26881901     -0.47084771
C       4.54385515     -3.35690325     -1.90405147
C       5.43504182     -2.41364193     -2.43132486
N       6.61644659     -2.86488992     -3.17908560
O       6.78985224     -4.08468316     -3.29597133
O       7.36039551     -1.99368462     -3.64711418
C       5.21063482     -1.04741236     -2.24862560
C       4.07003190     -0.64992137     -1.53538312
N       3.86362154      0.76752028     -1.34611125
O       4.71626037      1.37088958     -0.68508291
O       2.87934918      1.27695538     -1.89893720
C      -0.57011111      0.76121191     -0.21651616
N       0.13480988      1.74624337     -0.95606913
C      -0.16608780      3.08735734     -1.09774242
C       0.83536149      3.80888559     -1.96421442
O      -1.11041377      3.69129778     -0.60113476
C      -1.72943147      1.04528011      0.52834245
H      -2.52138671      2.79439248      2.80166492
H      -3.71138891      2.24594068      3.98573861
H      -4.08041664      3.62421367      2.93565648
H      -4.16068161      2.14613140      0.93650546
H      -5.28043685      1.62263833      2.15449508
H      -3.51037728     -1.24331738      3.37822884
H      -4.74637490     -0.06544971      3.69582426
H      -6.04027720     -0.76919217      1.68331165
H      -5.76487425     -2.11780828      2.79861633
H      -4.81744806     -1.98738561      1.30731399
H      -2.40723696     -2.05184028      1.71882489
H      -0.41782368     -2.56979374      0.45129791
H       4.72124078     -4.42379252     -2.03785921
H       5.89970335     -0.30125402     -2.64267765
H       0.97814414      1.41732573     -1.42491127
H       1.77474782      3.92823038     -1.41789144
H       0.44710408      4.79757645     -2.22562745
H       1.00760762      3.25407287     -2.89080302
H      -2.08382087      2.06700155      0.54832219
