49
C[C@]12CC[C@H]3[C@@H](CCC4=CC(=O)CC[C@@]43C)[C@@H]1CC[C@@H]2O
C       2.86905440      0.89355223      0.84913205
C       2.32859443      0.68167301     -0.58811547
C       1.37469694      1.82648562     -0.95093521
C       0.07566004      1.76175790     -0.12741174
C      -0.62972542      0.37823737     -0.18545396
C       0.35946770     -0.79385756      0.10801031
C      -0.34132732     -2.14127509     -0.10642553
C      -1.57395281     -2.26785517      0.77926974
C      -2.53469187     -1.11868112      0.58307412
C      -3.83709029     -1.37347393      0.36337656
C      -4.84289016     -0.28961917      0.28615529
O      -6.01537065     -0.56877461      0.04839649
C      -4.39431142      1.11414720      0.59265951
C      -2.96652435      1.33236201      0.11332626
C      -1.94806708      0.29682526      0.67679028
C      -1.68606210      0.61194424      2.16674075
C       1.58141328     -0.64812905     -0.80429150
C       2.69052321     -1.69488877     -0.73522925
C       3.90634059     -0.99276619     -1.36694376
C       3.49473323      0.47774996     -1.57437875
O       4.57353018      1.36260836     -1.34293149
H       3.59619645      0.12856257      1.13928480
H       3.37306641      1.86356469      0.93207482
H       2.07921489      0.88178363      1.60474126
H       1.11389429      1.77604621     -2.01611479
H       1.86004205      2.79795148     -0.79840440
H      -0.59558171      2.53947968     -0.50804501
H       0.29916811      2.03041088      0.90967016
H      -0.93864619      0.25181167     -1.23618884
H       0.68384625     -0.75147966      1.15352038
H       0.34393023     -2.96494455      0.12529924
H      -0.62963434     -2.25428593     -1.15960769
H      -2.05827727     -3.22998439      0.57167817
H      -1.26765743     -2.29914970      1.83218575
H      -4.23598481     -2.37923569      0.28744823
H      -5.05852626      1.81262784      0.07175981
H      -4.49275808      1.28806005      1.66871717
H      -2.96775410      1.28219244     -0.98467460
H      -2.66570495      2.35354525      0.37625487
H      -1.41817561      1.66317635      2.31579988
H      -2.57395615      0.42005759      2.78060609
H      -0.87638685      0.00466570      2.58310539
H       1.20705073     -0.67194138     -1.84173293
H       2.42941933     -2.60629053     -1.28261206
H       2.90949759     -1.98046294      0.29966256
H       4.16346661     -1.44947232     -2.32924923
H       4.78845517     -1.08784999     -0.72381782
H       3.15547460      0.62124342     -2.60809871
H       5.29232052      1.11189510     -1.94807720
