12
Fc1cc(F)c(F)cc1F
F       1.53838403     -2.24633766      0.09102812
C       0.78030575     -1.14277953      0.04628725
C      -0.60426148     -1.26878581      0.03800990
C      -1.37967301     -0.11572950     -0.00858604
F      -2.71486585     -0.22395614     -0.01702484
C      -0.78030577      1.14277943     -0.04628655
F      -1.53838396      2.24633766     -0.09102508
C       0.60426146      1.26878589     -0.03800940
C       1.37967291      0.11572938      0.00858473
F       2.71486594      0.22395621      0.01702091
H      -1.07010088     -2.24692239      0.06731331
H       1.07010087      2.24692245     -0.06731231
