39
C=CC(=C)CC/C=C(\C)CCC=C(C)C
C      -5.37112711      0.12445064     -0.96098320
C      -4.74640813     -0.92442840     -0.41112046
C      -3.79266574     -0.89528869      0.68872043
C      -3.29733729     -2.05391399      1.15828319
C      -3.38359333      0.42052849      1.32543128
C      -2.35314823      1.22252274      0.51450938
C      -0.97439373      0.61440558      0.54626935
C      -0.30630367      0.02189919     -0.46399751
C      -0.86395948     -0.19849242     -1.84489978
C       1.09309106     -0.52356088     -0.23788217
C       2.17010853      0.29745274     -0.95610840
C       3.54676630     -0.25312679     -0.69305676
C       4.49125194      0.24780540      0.12699401
C       5.83791623     -0.41739746      0.24389809
C       4.32501469      1.46421440      0.99552934
H      -5.22341633      1.14486543     -0.62805946
H      -6.06666241     -0.02536719     -1.78135846
H      -4.97353804     -1.90783684     -0.82339591
H      -2.58599488     -2.07085207      1.97854803
H      -3.57162487     -3.01592593      0.73706704
H      -4.27505628      1.03881430      1.49122310
H      -2.98107757      0.23990884      2.33218782
H      -2.70425698      1.39137856     -0.50722293
H      -2.27225587      2.22252553      0.96041774
H      -0.47978928      0.69649151      1.51425104
H      -0.72603010     -1.24281852     -2.14510691
H      -0.35038240      0.44007902     -2.57009661
H      -1.93372213      0.00796267     -1.91836865
H       1.12640544     -1.56849036     -0.57337825
H       1.31940424     -0.55036874      0.83663838
H       2.09537353      1.35198438     -0.67146300
H       2.00489475      0.27150678     -2.04042102
H       3.77820474     -1.15409240     -1.26156489
H       6.00986230     -0.74831360      1.27335689
H       5.92688128     -1.29410041     -0.40627791
H       6.63156135      0.28388336     -0.03404858
H       3.30513483      1.85517416      1.00473809
H       4.99050319      2.26381792      0.65447656
H       4.58036949      1.22270304      2.03303902
