23
Clc1cccc(Oc2ccc(Cl)c(Cl)c2Cl)c1
Cl     -3.03733534     -0.54036217      2.81179360
C      -2.69036589     -0.11372168      1.18097725
C      -3.62842627      0.60699948      0.44149250
C      -3.35559426      0.94385706     -0.88482713
C      -2.14247041      0.56691320     -1.46181998
C      -1.19784738     -0.13339229     -0.70841847
O      -0.03597369     -0.49278702     -1.35527819
C       1.14347035     -0.33569244     -0.65740345
C       1.50712339      0.92528192     -0.17461296
C       2.71950700      1.08665343      0.49155362
C       3.57788105     -0.00453424      0.66325623
Cl      5.06168581      0.29066243      1.50381226
C       3.23114053     -1.27060764      0.16233863
Cl      4.30849015     -2.61757303      0.37363804
C       2.00737126     -1.43277121     -0.50948481
Cl      1.52395039     -2.97148367     -1.15283996
C      -1.47650450     -0.49475549      0.61163217
H      -4.57504789      0.89931233      0.88885176
H      -4.08916578      1.49391417     -1.46918490
H      -1.93267031      0.82018209     -2.49821133
H       0.85403203      1.78289946     -0.31983189
H       2.99448979      2.06879160      0.87132838
H      -0.76774002     -1.07778627      1.19123866
