10
[Na+].[O-]CCS
Na      0.00000000      0.00000000      0.00000000
O       0.79204093      1.35595489     -0.68688299
C       0.89480666      0.29173985      0.10129769
C      -0.32306749     -0.64050095     -0.15068358
S      -1.89993365      0.07680757      0.43157456
H       0.93600763      0.44463826      1.19201053
H       1.76984383     -0.36196374     -0.04783835
H      -0.42474951     -0.88587369     -1.21517698
H      -0.17816467     -1.58475581      0.38610306
H      -1.56678373      1.30395362     -0.01040394
