26
CC(C)C(N)C(=O)NCC(=O)O
C      -1.83972788      0.02607108      1.65319744
C      -1.86241481     -0.72859428      0.31891469
C      -3.22605097     -0.54194941     -0.35464988
C      -0.70134587     -0.33923316     -0.62689914
N      -0.62447658      1.11344566     -0.93234997
C       0.67467424     -0.81879868     -0.09547588
O       0.82427210     -1.71559783      0.72702348
N       1.72823643     -0.14411717     -0.68319619
C       3.06105652     -0.22953973     -0.11994018
C       3.21976547      0.77243499      1.01361522
O       2.46586935      1.69288466      1.29398106
O       4.36142604      0.59034460      1.70924894
H      -2.03417804      1.09518420      1.51920275
H      -2.61151758     -0.36567140      2.32503151
H      -0.87634089     -0.08460531      2.16015660
H      -1.76432587     -1.79771810      0.55062798
H      -3.44307592      0.51249309     -0.55286705
H      -4.02621726     -0.93013673      0.28504239
H      -3.26885094     -1.08477112     -1.30468127
H      -0.83911202     -0.86400293     -1.58135226
H      -1.53358004      1.42852291     -1.26941997
H      -0.46685791      1.62021058     -0.05727064
H       1.43830762      0.73398005     -1.11302137
H       3.77310596      0.01672696     -0.91184591
H       3.24061995     -1.24015002      0.25782252
H       4.33073891      1.28258708      2.40257240
