46
O=C(c1cc2cccnn2c1-c1cccc(C(F)(F)F)c1)N1CCC[C@H]1CO
O       1.22948499     -0.32979859      2.42532131
C       1.08647300      0.07330002      1.27277436
C       0.21393207      1.20242423      0.98391665
C       0.40057181      2.53172247      1.45365872
C      -0.64589236      3.28913972      0.98464598
C      -0.99064734      4.65331474      1.12134904
C      -2.11389018      5.10043081      0.55073257
C      -2.92110132      4.11224903     -0.19610535
N      -2.64852181      2.85769724     -0.35490892
N      -1.48909693      2.46630812      0.25822888
C      -0.98388315      1.17166054      0.26518998
C      -1.67832995      0.02658685     -0.34313356
C      -2.15121347      0.08283063     -1.66016443
C      -2.77448439     -1.02166913     -2.24339150
C      -2.93209853     -2.19960901     -1.51521870
C      -2.47773267     -2.28066812     -0.19153464
C      -2.62270936     -3.55591076      0.59989285
F      -1.47976989     -4.29664444      0.59690306
F      -3.59891151     -4.37824760      0.12106993
F      -2.92941101     -3.34184290      1.90912093
C      -1.84829780     -1.16216256      0.38190747
N       1.77513152     -0.48877819      0.21495971
C       1.79946373     -0.00090064     -1.15750679
C       2.95103672     -0.75230620     -1.80665424
C       2.93336989     -2.08513917     -1.06959276
C       2.60986145     -1.68859779      0.37557956
C       3.88812464     -1.40926821      1.19314322
O       3.64690076     -1.46209208      2.59701586
H       1.21842594      2.88282651      2.07067048
H      -0.34859423      5.31876516      1.68961178
H      -2.45300290      6.12478241      0.61050020
H      -3.84042406      4.51413532     -0.65379818
H      -2.03520958      0.99191290     -2.24657536
H      -3.13713950     -0.96008842     -3.26650692
H      -3.41744746     -3.05498415     -1.98305839
H      -1.49685549     -1.22467032      1.41244812
H       0.85484949     -0.27038388     -1.63712221
H       1.93047093      1.08415745     -1.19286252
H       2.82593389     -0.86011933     -2.88750094
H       3.89791686     -0.23219781     -1.61974347
H       2.12319859     -2.70814941     -1.46962151
H       3.86821790     -2.64252241     -1.17710008
H       2.01531175     -2.46238107      0.87556890
H       4.31123980     -0.42709141      0.95766070
H       4.64941559     -2.16732701      0.98430193
H       2.78533357     -1.02069353      2.76592830
