24
Nc1ccc(S(=O)(=O)O)c2ccccc12
N      -3.13103205     -1.10778611     -0.18998273
C      -1.72345435     -0.98961598     -0.19209108
C      -0.98190044     -2.16187540     -0.01138178
C       0.40263021     -2.12014602      0.07504599
C       1.06670761     -0.88950077      0.02367635
S       2.84079551     -0.92985063      0.17110939
O       3.40723492     -0.34050370     -1.02079492
O       3.23480198     -2.24978639      0.62017958
O       3.17767897      0.02996715      1.42357612
C       0.35578260      0.33512804     -0.09859642
C       0.96920766      1.61568409     -0.14466739
C       0.22869301      2.79491598     -0.22599826
C      -1.15194330      2.73446137     -0.26089463
C      -1.78670643      1.49333511     -0.23508347
C      -1.06653713      0.27544913     -0.17424934
H      -3.59733052     -0.37806018     -0.71812757
H      -3.46018607     -2.02642656     -0.47162280
H      -1.48378225     -3.12452529      0.05260149
H       0.95037884     -3.05330744      0.19004330
H       3.57317974     -0.53076358      2.12411180
H       2.05160081      1.72682537     -0.11885845
H       0.73712241      3.75521888     -0.25488201
H      -1.73966430      3.64712332     -0.31042167
H      -2.87327745      1.49403959     -0.25269150
