41
CC(C)=CCCC(C)CCCC(C)C=O
C       4.24660743      2.42853184     -0.10361440
C       3.89393759      1.02359951     -0.52122235
C       4.03769086      0.77061675     -1.99627069
C       3.49100744      0.12101811      0.39462086
C       3.09255303     -1.31378172      0.18082317
C       1.66516231     -1.61076410      0.66276263
C       0.53846524     -0.83984062     -0.06446086
C       0.47143938     -1.21378379     -1.54812159
C      -0.80221908     -1.12032383      0.65146213
C      -1.96953968     -0.27431325      0.12978305
C      -3.22761994     -0.48871575      0.97787875
C      -4.46192487      0.24577060      0.43251952
C      -4.31520706      1.76435794      0.46683007
C      -5.67645412     -0.20338212      1.22716915
O      -6.43328808      0.54805739      1.83338304
H       5.28849627      2.64939967     -0.35776474
H       3.60201606      3.14915529     -0.61760764
H       4.12701312      2.58595685      0.97349331
H       3.83614401     -0.26179624     -2.28653557
H       5.05865244      1.00146801     -2.31876562
H       3.34733101      1.41099536     -2.55529436
H       3.44116428      0.43776419      1.43710990
H       3.78429607     -1.93597961      0.76305161
H       3.21134345     -1.63676815     -0.85528556
H       1.61240403     -1.39131886      1.73773529
H       1.48581474     -2.68943877      0.56362360
H       0.74018881      0.23584280      0.00983216
H      -0.29513418     -0.63502917     -2.07168290
H       1.41609350     -1.00674641     -2.05780193
H       0.24251102     -2.27686569     -1.67752270
H      -0.67924589     -0.91607133      1.72302275
H      -1.05438051     -2.18470420      0.56146438
H      -1.68118354      0.78227690      0.14698391
H      -2.19284991     -0.53984649     -0.90894137
H      -3.03445081     -0.17052811      2.01078081
H      -3.44170799     -1.56467981      1.02652475
H      -4.64417238     -0.06645721     -0.60317079
H      -4.08722185      2.11880946      1.47806058
H      -5.24200484      2.25365798      0.14703415
H      -3.51993809      2.10405377     -0.20326726
H      -5.87178926     -1.29019719      1.21138075
