24
CC(=O)NC(C(=O)O)C(C)C
C       3.21731568      0.60649218      0.05601279
C       1.89385814      0.46462955      0.75853851
O       1.78496637      0.57906868      1.97418201
N       0.83690336      0.20885928     -0.08668410
C      -0.53995597      0.25139714      0.41788907
C      -1.15028650      1.65043220      0.24415300
O      -2.24260758      2.01656914      0.64998695
O      -0.39176481      2.49489744     -0.49285066
C      -1.43667888     -0.80917739     -0.25954293
C      -1.00218563     -2.22463099      0.13262555
C      -1.48276211     -0.68206962     -1.78592673
H       3.48610286      1.66489296      0.00904943
H       3.97968710      0.05551774      0.61368827
H       3.17769778      0.20128120     -0.95909695
H       0.95623188      0.52715909     -1.04075855
H      -0.51822372      0.06980856      1.49951183
H      -0.90957123      3.32806379     -0.48783087
H      -2.46263975     -0.67142484      0.10779722
H      -0.99922485     -2.34290201      1.22130735
H      -1.69163243     -2.96869986     -0.28061715
H       0.00190440     -2.45637712     -0.23790627
H      -1.81404041      0.31492282     -2.09261040
H      -2.18834736     -1.40619095     -2.20801952
H      -0.50474633     -0.87251896     -2.23966212
