24
O=C(O)Cc1cccc2ccccc12
O       2.74410064     -0.58893866      1.51034312
C       2.79836966      0.34912443      0.73351402
O       3.60131142      1.40073527      1.00665337
C       2.10349619      0.49921636     -0.59695277
C       0.80735362     -0.27968351     -0.69514137
C       0.82627329     -1.50456251     -1.38637166
C      -0.32757525     -2.27004962     -1.50904646
C      -1.51715237     -1.82610832     -0.93967770
C      -1.57109112     -0.61457434     -0.23572077
C      -2.78198108     -0.18973535      0.33601952
C      -2.86125321      1.00750859      1.04421133
C      -1.72844962      1.79575264      1.19051646
C      -0.51654269      1.38744623      0.62714339
C      -0.40284559      0.17875999     -0.09963861
H       3.99967320      1.16534038      1.87157140
H       1.90469151      1.55858060     -0.79558654
H       2.80625236      0.17090286     -1.37246628
H       1.74849692     -1.87330928     -1.83094285
H      -0.30035629     -3.21546699     -2.04420494
H      -2.40806612     -2.44138871     -1.04548973
H      -3.67977015     -0.79590013      0.23450313
H      -3.80548008      1.32009028      1.48157638
H      -1.78228685      2.72944580      1.74416975
H       0.34283162      2.03681398      0.77101778
