34
CC/C=C(\C)C(O)CCCCC
C       4.48650206     -1.27125717     -0.85670870
C       4.10553339      0.02093388     -0.15266137
C       2.62924127      0.07641060      0.13218783
C       1.68777917      0.78525783     -0.52714625
C       1.99185008      1.61772120     -1.75204864
C       0.21155680      0.80893661     -0.14192997
O      -0.11447747      2.15441319      0.20438238
C      -0.22992376     -0.11261309      1.00903646
C      -1.72452846     -0.02750749      1.35299973
C      -2.63883592     -0.51099480      0.22533854
C      -4.10194137     -0.53259091      0.67038250
C      -5.01717765     -1.00752165     -0.44697807
H       4.20877973     -2.14619566     -0.25917117
H       3.99125554     -1.35159913     -1.83027539
H       5.56785781     -1.30622184     -1.02348504
H       4.64151772      0.08392732      0.80214867
H       4.44511741      0.87887395     -0.74015887
H       2.34160913     -0.52668902      0.99132600
H       1.26646755      1.40455143     -2.54494153
H       1.93610560      2.68394348     -1.51073497
H       2.97776048      1.41778438     -2.17814735
H      -0.36737353      0.55138006     -1.03552314
H       0.52276418      2.42567285      0.88729445
H       0.31671730      0.16075635      1.92111428
H       0.02295144     -1.15375403      0.77382043
H      -1.98835217      1.00013251      1.62978852
H      -1.90071555     -0.64405805      2.24357878
H      -2.54131202      0.14589947     -0.64599537
H      -2.33594502     -1.51705736     -0.08881932
H      -4.40988356      0.47116901      0.98562500
H      -4.21875432     -1.19502460      1.53596085
H      -4.75518303     -2.02196512     -0.76413908
H      -6.05749819     -1.01586498     -0.10702529
H      -4.94946463     -0.34684922     -1.31718593
