29
O=C(NO)c1ccccc1N=Cc1ccccn1
O      -3.24108747     -2.40102890      0.25271590
C      -2.24980428     -1.72204710     -0.01305841
N      -0.98288882     -2.22382899      0.14398991
O      -0.88170546     -3.59892640      0.44919667
C      -2.37568249     -0.33931736     -0.56431540
C      -3.67889580      0.11616773     -0.83728953
C      -3.89418149      1.38070122     -1.38600060
C      -2.81028174      2.20167790     -1.67605135
C      -1.51342490      1.76218824     -1.40521023
C      -1.27599613      0.50231995     -0.82894198
N       0.06031188      0.11116869     -0.58233770
C       0.67751399      0.75888037      0.36277078
C       2.07957532      0.48546600      0.73902451
C       2.82181987     -0.49435463      0.09317212
C       4.13450479     -0.69724233      0.50793983
C       4.65101316      0.07928148      1.54082636
C       3.83126370      1.03516991      2.12146779
N       2.55412368      1.26034256      1.74391796
H      -0.17886910     -1.76441714     -0.28111387
H      -1.82682150     -3.85634769      0.52461753
H      -4.53653951     -0.52224514     -0.62941937
H      -4.90704314      1.71684671     -1.59516498
H      -2.97121704      3.18262366     -2.11663830
H      -0.67361343      2.40929679     -1.64879587
H       0.17817030      1.55604981      0.94562126
H       2.39747326     -1.08666692     -0.70990418
H       4.74870467     -1.45637481      0.03094821
H       5.67001561     -0.05826818      1.88671828
H       4.19356208      1.66288457      2.93131469
