11
O=C(O)CC(=O)O
O      -1.31866727      1.10496228     -1.07022648
C      -1.22438434      0.29855011     -0.16107124
O      -2.33514147     -0.26232684      0.36208380
C       0.01493238     -0.11865189      0.55800563
C       1.21121718     -0.19392416     -0.33096686
O       1.25007425     -0.55992550     -1.49298495
O       2.35332660      0.11782930      0.31745607
H      -3.06529441      0.10835157     -0.17859632
H      -0.12426718     -1.11003040      1.00155172
H       0.18742457      0.60818424      1.35856558
H       3.05077970      0.00698127     -0.36381696
