13
C=COCC
C       2.26805238     -0.00812135      0.12350853
C       1.36731539      0.97622176      0.02813547
O       0.00416581      0.90264460      0.04685307
C      -0.57899672     -0.39284859      0.18670143
C      -2.08826535     -0.23376171      0.18233516
H       3.32795214      0.22422403      0.09068786
H       1.99686501     -1.05048680      0.23442759
H       1.66536537      2.01393704     -0.08251617
H      -0.28026839     -1.03388944     -0.65075937
H      -0.26581338     -0.84778397      1.13351856
H      -2.58290496     -1.20341905      0.28748068
H      -2.40964457      0.41791256      1.00159746
H      -2.42382275      0.23537094     -0.74850881
