19
CCOC(=O)CC(=O)C(F)(F)F
C       3.40089176     -0.36858741      0.52523387
C       2.02477502     -0.85769394      0.11815390
O       1.16079928      0.28114037      0.00283564
C      -0.11549602     -0.01852438     -0.35834662
O      -0.54613095     -1.14029728     -0.57828614
C      -0.92858948      1.23282637     -0.45179596
C      -2.37826828      0.95962032     -0.74923407
O      -2.91152881      1.46146652     -1.74522586
C      -3.12589336      0.09557433      0.25589476
F      -3.45486713     -1.12859019     -0.23060871
F      -4.29098340      0.67801760      0.65588844
F      -2.40995092     -0.11036209      1.39757775
H       3.79557451      0.33339377     -0.21675114
H       4.09815616     -1.20492762      0.62633847
H       3.35265024      0.16899830      1.47800389
H       2.08518560     -1.37404651     -0.84639618
H       1.63407847     -1.54150164      0.88000671
H      -0.87257391      1.78469392      0.49180515
H      -0.51782876      1.85362546     -1.25509389
