48
COc1ccc2cc(C(C)C(=O)OC3CCCCC3O)ccc2c1
C       6.73169398     -1.87423431     -1.08396579
O       5.82601886     -0.83240071     -1.42469296
C       4.78576870     -0.61038780     -0.56456345
C       4.54199639     -1.29851000      0.62154087
C       3.43518741     -0.96683869      1.41101499
C       2.55548551      0.05733507      1.02791936
C       1.43895372      0.39910671      1.81064698
C       0.56145867      1.42335580      1.42082355
C      -0.65327295      1.75037313      2.27419056
C      -0.58158122      3.17344311      2.83114785
C      -1.94776040      1.52445993      1.50247074
O      -2.74483748      2.39642106      1.18363831
O      -2.08183252      0.20049765      1.19488619
C      -3.20956134     -0.14174136      0.36352564
C      -3.48790639     -1.63494165      0.55785934
C      -4.60778004     -2.11596377     -0.35955958
C      -4.32205353     -1.79024869     -1.82369738
C      -4.01098697     -0.30596646     -2.02935005
C      -2.88867457      0.17597989     -1.11042377
O      -1.67184865     -0.46731722     -1.50778431
C       0.81646922      2.11025954      0.22663038
C       1.92169230      1.77941968     -0.56012645
C       2.79918567      0.75630223     -0.17262631
C       3.91453146      0.41126687     -0.95370929
H       7.24335804     -1.65915619     -0.14004827
H       7.49151812     -1.92686652     -1.86967158
H       6.22330317     -2.84340377     -1.04707975
H       5.19026080     -2.09794865      0.96375884
H       3.26585290     -1.51948464      2.33264963
H       1.25063126     -0.14589733      2.73429457
H      -0.69215014      1.07505330      3.13977216
H      -0.60099992      3.92794784      2.03674749
H      -1.43475552      3.37320764      3.48907748
H       0.33541704      3.32176735      3.41200564
H      -4.09703758      0.41812643      0.68750488
H      -3.75353907     -1.82619522      1.60470553
H      -2.57521352     -2.21655461      0.37480464
H      -5.55114037     -1.64286458     -0.06011296
H      -4.74242827     -3.19708479     -0.24210478
H      -3.47557644     -2.39504861     -2.17146809
H      -5.18476030     -2.07222424     -2.43798636
H      -4.91637893      0.28343694     -1.84080222
H      -3.72816189     -0.15088852     -3.07718066
H      -2.73184025      1.25070202     -1.24911267
H      -1.00040969     -0.25371900     -0.83282905
H       0.15595247      2.90806700     -0.10958109
H       2.09313302      2.32821237     -1.48415161
H       4.11461922      0.94114580     -1.88277007
