12
C1OC1C1CO1
C       2.01999652      0.00148597     -0.04741132
O       1.33418594      1.15069502     -0.55691465
C       0.61777701      0.34088636      0.39014723
C      -0.61777704     -0.34088701     -0.16236717
C      -2.01999664     -0.00148553      0.27519002
O      -1.33418704     -1.15069435      0.78469470
H       2.16481284     -0.83756105     -0.71583655
H       2.82914688      0.16952218      0.65185500
H       0.52132752      0.74505012      1.39459011
H      -0.52132678     -0.74505215     -1.16680971
H      -2.16481311      0.83756178      0.94361482
H      -2.82914611     -0.16952133     -0.42407730
