12
O=CC(O)CO
O       1.51374248      1.80737879      0.48193566
C       0.74549897      1.23275741     -0.28856519
C       0.49150112     -0.26339068     -0.21329038
O       0.86656514     -0.77881353      1.06411829
C      -0.98195805     -0.56833607     -0.45927103
O      -1.77775614     -0.06683848      0.61347558
H       0.26273802      1.77036504     -1.12196341
H       1.10636427     -0.74254709     -0.98178473
H       1.61236125     -0.22113441      1.36911530
H      -1.14558860     -1.64997787     -0.50354263
H      -1.34060713     -0.12129884     -1.39132128
H      -1.35286132     -0.39816426      1.43109380
