37
Cc1cnc(C2=NC(C)(C(C)C)C(=O)N2)c(C(=O)O)c1
C       5.63356628      0.28875094     -0.20280028
C       4.14278376      0.30996943     -0.07486333
C       3.52523808      0.16039968      1.16273854
N       2.18559291      0.18938628      1.35174148
C       1.40814900      0.39207239      0.24372504
C      -0.04715294      0.30815069      0.51675460
N      -0.99914944      0.23067199     -0.36273356
C      -2.26625233      0.14989466      0.43775641
C      -3.05609442      1.44009384      0.20511353
C      -3.05273139     -1.13647722      0.08380104
C      -2.23168321     -2.41798594      0.29385987
C      -3.59518373     -1.12628387     -1.35080406
C      -1.77629741      0.13491549      1.88434160
O      -2.43969672      0.02084793      2.90007656
N      -0.43244703      0.27820196      1.81259809
C       1.93610404      0.59734644     -1.02125943
C       1.11505528      0.88783377     -2.19367496
O       1.08481529      0.23937248     -3.22067333
O       0.49057287      2.06814730     -2.04702337
C       3.32417619      0.54454282     -1.18289767
H       5.93541736     -0.08568611     -1.18660142
H       6.03588756      1.29771966     -0.07005869
H       6.08065947     -0.37200512      0.54733956
H       4.10953142      0.00135474      2.06680991
H      -4.02670604      1.40388039      0.71165499
H      -3.22550759      1.62522460     -0.86066597
H      -2.51733662      2.31186512      0.59586185
H      -3.91761737     -1.20029539      0.75841016
H      -1.36283803     -2.45527723     -0.37151123
H      -1.87750453     -2.50357040      1.32572558
H      -2.84368321     -3.30341006      0.08869972
H      -2.78948619     -1.01637875     -2.08411402
H      -4.12349145     -2.06039952     -1.57171582
H      -4.31077688     -0.31243310     -1.50141699
H       0.19861446      0.27097284      2.60045742
H      -0.07351944      2.14383654     -2.84525705
H       3.75899200      0.69475072     -2.16948672
