54
COC(=O)CN(CC(=O)OC)c1ccc(N=Nc2ccc([N+](=O)[O-])cc2C#N)c(NC(C)=O)c1
C      -5.23084911      3.48429330     -0.87664915
O      -4.50211965      2.96381040      0.23648307
C      -4.87440676      1.69689642      0.59061068
O      -5.79372867      1.06620018      0.07731263
C      -4.02221930      1.18075362      1.74530866
N      -3.21042754     -0.00832059      1.41888131
C      -3.96083010     -1.21283591      0.96548347
C      -4.06083412     -1.35915737     -0.55997050
O      -3.62331835     -0.58687165     -1.40508049
O      -4.74196288     -2.51040858     -0.84993406
C      -4.95724863     -2.72799667     -2.24560069
C      -1.87126024      0.10450894      1.04880510
C      -1.30843671      1.30205777      0.59597191
C       0.03700578      1.38091519      0.21873904
C       0.88077782      0.26510169      0.30415406
N       2.22317935      0.33874640     -0.13814383
N       2.83800416      1.27092954      0.42618949
C       4.15269749      1.38207146     -0.07189902
C       4.52028880      2.59482159     -0.67818567
C       5.81036408      2.78892309     -1.18211241
C       6.75415173      1.76339997     -1.06731356
N       8.10531804      1.95215735     -1.60817892
O       8.96732515      1.12054609     -1.29152975
O       8.29507896      2.92146850     -2.35406545
C       6.41996890      0.55287593     -0.44512837
C       5.12334830      0.36761295      0.05811807
C       4.79564033     -0.86910833      0.70015210
N       4.49898280     -1.87736093      1.19560432
C       0.34683986     -0.95227715      0.76593764
N       1.21221888     -2.07338115      0.86467931
C       0.87471519     -3.38145863      1.16122774
C       2.07868971     -4.28453072      1.23471032
O      -0.25182396     -3.82505808      1.36521706
C      -1.00862144     -1.00745696      1.13172681
H      -6.29216697      3.57518345     -0.62848581
H      -4.84166789      4.48071688     -1.09951296
H      -5.09265275      2.84989488     -1.75767023
H      -4.71994917      0.92022696      2.55241722
H      -3.41088231      1.99050083      2.16297336
H      -4.98364583     -1.17131945      1.35984125
H      -3.50887834     -2.12165380      1.37600705
H      -5.57772403     -1.92857694     -2.65998870
H      -5.49677812     -3.67288691     -2.36411975
H      -4.00465247     -2.79972433     -2.77703726
H      -1.90841147      2.20217142      0.48943276
H       0.42420958      2.32449479     -0.15839475
H       3.78593238      3.39821083     -0.75930496
H       6.05769918      3.73511044     -1.65380946
H       7.15609253     -0.24420263     -0.34661237
H       2.19405667     -1.88556747      0.68472670
H       1.75485803     -5.32811042      1.16097333
H       2.76309729     -4.08513968      0.40520955
H       2.59006210     -4.13162004      2.18945656
H      -1.40510629     -1.92957645      1.54040452
