43
O=C1C=CC(=NNc2ccc(N=Nc3ccccc3)c3ccccc23)C=C1
O       8.62384399      1.80355932      0.41269498
C       7.44236374      1.60214349      0.16648785
C       6.68713973      2.48149574     -0.74294920
C       5.40317900      2.24680979     -1.02738049
C       4.66510918      1.09163966     -0.45615281
N       3.42638776      0.93221358     -0.81457443
N       2.77611263     -0.16139381     -0.31795944
C       1.34546245     -0.15268345     -0.36908448
C       0.65787401      1.04350979     -0.62417654
C      -0.73215749      1.07867946     -0.65120620
C      -1.47938611     -0.07326760     -0.38744070
N      -2.88844584     -0.00562512     -0.45980770
N      -3.34409343      0.58889423      0.54285486
C      -4.74966117      0.63340608      0.49916445
C      -5.44097169      1.27060717     -0.54036420
C      -6.83678312      1.32240766     -0.54000018
C      -7.55390900      0.74484861      0.50668440
C      -6.87748097      0.11965448      1.55318549
C      -5.48152671      0.06937019      1.54965807
C      -0.81924531     -1.29065206     -0.08843136
C      -1.54668983     -2.47009547      0.19113621
C      -0.91122510     -3.66645539      0.51733341
C       0.47157450     -3.71076088      0.57893508
C       1.21554942     -2.56212923      0.30062268
C       0.60322427     -1.33307443     -0.05393346
C       5.43176144      0.23169195      0.48807775
C       6.71588433      0.47120912      0.77143271
H       7.22729484      3.32043566     -1.16411459
H       4.84536388      2.89140833     -1.69777714
H       3.11141678     -1.04760897     -0.69891031
H       1.20762164      1.96034942     -0.82090369
H      -1.24195983      2.01208692     -0.87446645
H      -4.88475771      1.72769784     -1.35450826
H      -7.36168933      1.81472565     -1.35442448
H      -8.64032891      0.78514195      0.50858366
H      -7.43453779     -0.32649053      2.37287072
H      -4.95582762     -0.41403905      2.36904906
H      -2.63565729     -2.45932776      0.16415096
H      -1.49998358     -4.55427350      0.73165495
H       0.97603041     -4.63541876      0.84679091
H       2.29599538     -2.64279028      0.38157347
H       4.90902670     -0.59172175      0.95813251
H       7.27810174     -0.14617807      1.46148822
