79
CC(C)CCCCCCCCCCCCCCC(=O)O.OC[C@H](O)[C@@H](O)[C@H](O)C(O)O
C      -6.43194508     -0.55850098     -1.56271696
C      -5.71960056      0.74737151     -1.20376295
C      -6.69567398      1.91574325     -1.34624952
C      -5.12634035      0.64814170      0.21481553
C      -4.19659782      1.81424595      0.56635737
C      -3.64481729      1.74687321      1.99435024
C      -2.83042910      0.49891282      2.34249869
C      -1.59879867      0.30144944      1.45629509
C      -0.76979086     -0.89390351      1.93330335
C       0.44568251     -1.13328521      1.03365134
C       1.26236588     -2.33060394      1.52714188
C       2.41452566     -2.71447537      0.59487797
C       3.51278967     -1.65046518      0.51321041
C       4.69111491     -2.14530869     -0.32889154
C       5.86592670     -1.16469480     -0.37498344
C       5.53330885      0.14862866     -1.08758905
C       6.77909160      1.01797720     -1.25187340
C       6.47321443      2.29270114     -1.99168750
O       5.37902020      2.74194052     -2.28114519
O       7.59595936      2.95892910     -2.32232398
O      -3.46417595      0.96979130      0.29138470
C      -2.06908026      0.92186805      0.60561198
C      -1.48806298     -0.35502183      0.00064298
O      -2.29262500     -1.46975828      0.44978728
C      -0.03517825     -0.63893468      0.42561673
O       0.30533480     -1.93973853     -0.08256337
C       0.96376035      0.41175914     -0.08527238
O       0.97331895      0.40644251     -1.52666630
C       2.41183742      0.19417585      0.40813493
O       3.20699383      1.29662535      0.00246994
O       3.00915053     -0.94197293     -0.17936920
H      -6.84620407     -0.51085498     -2.57560235
H      -7.25453618     -0.76577870     -0.86913573
H      -5.73632771     -1.40357634     -1.52712843
H      -4.90226662      0.89242383     -1.91930506
H      -7.50779989      1.84262483     -0.61609628
H      -6.19588241      2.87817323     -1.20573678
H      -7.14278730      1.92655018     -2.34642831
H      -4.56524732     -0.29072854      0.28922798
H      -5.93706863      0.59098054      0.95262446
H      -3.37117305      1.85889442     -0.15236271
H      -4.73788271      2.76150214      0.47222790
H      -4.48061722      1.82076853      2.70069083
H      -3.02105701      2.63276154      2.16532860
H      -2.50742034      0.58786405      3.38693542
H      -3.46841580     -0.38968060      2.29655165
H      -1.90586997      0.13655200      0.41704612
H      -0.98074717      1.20657173      1.47535820
H      -1.39917226     -1.79286910      1.94295169
H      -0.43577128     -0.72004265      2.96460274
H       0.10966388     -1.31444481      0.00574408
H       1.06831887     -0.23120658      1.01929039
H       0.60025361     -3.20041485      1.62201079
H       1.65403523     -2.12251889      2.53085629
H       2.84983502     -3.65291150      0.96202481
H       2.02429694     -2.92035431     -0.40929743
H       3.10344508     -0.73729710      0.07121100
H       3.85986913     -1.40142000      1.52272644
H       5.05510248     -3.09355376      0.08581208
H       4.35159119     -2.35813455     -1.34970402
H       6.21270405     -0.95614533      0.64446836
H       6.69656622     -1.65585986     -0.89809584
H       5.10176761     -0.06351773     -2.07362762
H       4.77676502      0.70423447     -0.52101717
H       7.53607711      0.46854136     -1.82174351
H       7.19098722      1.27968219     -0.27122411
H       7.26596223      3.75150832     -2.79749146
H      -3.82035053      1.77350986      0.71436387
H      -1.97924036      0.91182698      1.69573074
H      -1.59033849      1.81766837      0.20524064
H      -1.58859582     -0.34730448     -1.09006077
H      -3.21428977     -1.15012181      0.35713976
H       0.02055263     -0.70737263      1.51846645
H      -0.49717388     -2.48389095      0.06988330
H       0.64952973      1.41543668      0.22113145
H       1.27061800     -0.50218216     -1.75157529
H       2.44413261      0.11451679      1.50027274
H       2.97532483      1.41229600     -0.93888270
H       3.80855759     -1.10961860      0.34834349
