42
CC(C)CCCCCCCCCCO
C      -6.25572355     -0.84181329     -0.51197885
C      -5.21398918      0.12544622      0.05584311
C      -5.43529530      0.29683569      1.55935912
C      -3.79760098     -0.37897828     -0.27703281
C      -2.69071788      0.60072564      0.12449440
C      -1.31783867      0.10712943     -0.34207693
C      -0.21105710      1.08170076      0.06712598
C       1.17030951      0.70190079     -0.47679191
C       1.72835814     -0.58758703      0.13130543
C       3.10973880     -0.96749630     -0.41261817
C       4.21665218      0.00788887     -0.00458297
C       5.58919379     -0.48714432     -0.47252186
C       6.70597147      0.48687948     -0.11339725
O       6.82008550      0.63090933      1.29528546
H      -6.14117108     -0.94515864     -1.59622130
H      -7.27072237     -0.47878741     -0.31840341
H      -6.16022815     -1.83688713     -0.06411249
H      -5.36295431      1.09986632     -0.42640404
H      -4.79024485      1.07888723      1.97083062
H      -6.47019939      0.58882783      1.76852432
H      -5.23160060     -0.63397620      2.09937260
H      -3.62322488     -1.34568921      0.21252668
H      -3.73212698     -0.55856242     -1.35798975
H      -2.67328059      0.72387140      1.21300098
H      -2.89499729      1.58515979     -0.31328987
H      -1.32049459     -0.00875521     -1.43254933
H      -1.12879108     -0.88144235      0.09049368
H      -0.46092020      2.08189442     -0.30851825
H      -0.16810280      1.15729455      1.16047876
H       1.12270879      0.60779119     -1.56833833
H       1.85006948      1.53331569     -0.25952925
H       1.77601504     -0.49339905      1.22284589
H       1.04858282     -1.41902320     -0.08581066
H       3.35992738     -1.96728342     -0.03610068
H       3.06644749     -1.04402371     -1.50589278
H       4.02751064      0.99524445     -0.43981814
H       4.21511799      0.12598081      1.08538367
H       5.79294469     -1.45947589     -0.00788935
H       5.57840865     -0.63408954     -1.55869521
H       6.51612965      1.47501536     -0.54396753
H       7.66514814      0.12811766     -0.50010007
H       6.99196161     -0.25111029      1.66678244
