25
O=S(=O)([O-])CCN1CCOCC1.[Na+]
O       3.98091952      0.52813484      0.88552238
S       3.69285012     -0.30327928     -0.28095426
O       3.64558002      0.41396981     -1.55382714
O       4.41912006     -1.57124514     -0.32309939
C       2.00702740     -0.81681635     -0.03237032
C       1.07397550      0.38599282      0.04896350
N      -0.35304494      0.01813691      0.26132708
C      -0.93421474     -0.61237211     -0.94331554
C      -2.43417828     -0.89498319     -0.75290330
O      -3.16491681      0.30095007     -0.44503293
C      -2.62706377      0.90675506      0.73901858
C      -1.13524937      1.23378703      0.57442126
Na      0.00000000      0.00000000      0.00000000
H       1.97417317     -1.40298842      0.89210718
H       1.75830916     -1.47290877     -0.87192306
H       1.17139950      1.01334064     -0.84640274
H       1.39630352      1.00501216      0.89608678
H      -0.43742019     -1.56360568     -1.15837347
H      -0.80438911      0.04539410     -1.81254609
H      -2.60021630     -1.63197329      0.04233113
H      -2.85230314     -1.30640317     -1.67725856
H      -2.79623771      0.24035926      1.59359752
H      -3.18953585      1.82806819      0.92133269
H      -0.77172119      1.68334871      1.50557505
H      -1.01916659      1.97332581     -0.22883466
