44
COC(=O)CN1CCc2sc(-c3ccccc3Cl)cc2C1.O=S(=O)(O)O
C      -6.22460607     -1.88582525      0.77575228
O      -5.34880151     -0.99959864      1.47423771
C      -4.21741213     -0.67034134      0.77841579
O      -3.95334721     -1.08511037     -0.34158869
C      -3.37291267      0.27654383      1.63290832
N      -2.10726251      0.74555698      1.03198166
C      -2.30266557      1.54611754     -0.19359608
C      -1.01485481      2.30895917     -0.58229144
C       0.16654170      1.40446997     -0.44083753
S       1.70351180      1.78572744     -1.04715498
C       2.36834521      0.32680824     -0.43400477
C       3.78833221      0.03087196     -0.64563643
C       4.23924889     -0.24126150     -1.94947174
C       5.58051551     -0.54314528     -2.19701209
C       6.49131834     -0.58009572     -1.14484000
C       6.06135795     -0.31560662      0.15534160
C       4.71783826     -0.01275896      0.40762683
Cl      4.27397237      0.31427770      2.04854982
C       1.41338579     -0.42667024      0.22464755
C       0.12759518      0.19775029      0.22819341
C      -1.13704676     -0.34965617      0.83196185
O      -0.64398913      1.55043526     -0.28601945
S      -0.06490427      0.35670572      0.27547829
O       0.32185647      0.22513133      1.65702145
O       1.22303856     -0.03835725     -0.59545819
O      -1.06347509     -0.84542072     -0.08675052
H      -6.58062174     -1.42202604     -0.14946706
H      -5.72233013     -2.83551161      0.56662074
H      -7.08739255     -2.08468614      1.41745881
H      -3.14755037     -0.23265149      2.57761925
H      -3.98995941      1.15040559      1.87404650
H      -3.09777611      2.28678394     -0.04418943
H      -2.60847508      0.90999795     -1.03325090
H      -0.88630024      3.17098886      0.08405987
H      -1.10622436      2.68404183     -1.60771083
H       3.53983414     -0.22279383     -2.78363685
H       5.91121788     -0.74966058     -3.21214648
H       7.53587092     -0.81356139     -1.33576131
H       6.77912117     -0.34403990      0.97148079
H       1.62892862     -1.38362551      0.68481813
H      -0.89868717     -0.80834228      1.79898525
H      -1.52270952     -1.13233241      0.17001798
H       1.75940267     -0.65457376     -0.05469315
H      -1.53192921     -0.59392058     -0.90957844
