23
COCCOCCOC
C       4.64464040     -0.17554296     -0.19102427
O       3.41138135      0.30017060      0.33222880
C       2.29898179     -0.35567745     -0.27541075
C       1.00498524      0.18386546      0.32359691
O      -0.10884088     -0.46478562     -0.29085167
C      -1.34675659      0.00548111      0.24395425
C      -2.50065653     -0.74071658     -0.42334609
O      -3.77012288     -0.34678258      0.09767837
C      -4.26371957      0.84908407     -0.49079741
H       4.70492203      0.01842473     -1.26627787
H       4.75714633     -1.24596508      0.00637281
H       5.45853760      0.35869069      0.30638469
H       2.30710590     -0.18360711     -1.35845875
H       2.36243213     -1.43768454     -0.10831125
H       0.99451393      0.00533017      1.40554552
H       0.94434521      1.26690764      0.16258260
H      -1.43408762      1.08310225      0.06842168
H      -1.37781075     -0.16089674      1.32735846
H      -2.47050384     -0.62720988     -1.51402616
H      -2.38685282     -1.81329344     -0.22839005
H      -3.60767612      1.69509177     -0.26969067
H      -5.24897531      1.05773296     -0.06489796
H      -4.37298900      0.72828054     -1.57283953
