35
OC(Cn1cncn1)(c1ccc(F)cc1)c1ccccc1F
O       0.54268849     -0.60411188     -1.74262523
C       0.17741666     -0.42994085     -0.35005199
C       1.32846063     -1.07920045      0.47130431
N       2.65159283     -0.58448849      0.14734925
C       3.44822872     -0.96027551     -0.89115642
N       4.59349371     -0.32282962     -0.81973522
C       4.46160448      0.41659302      0.32031374
N       3.29533605      0.27833601      0.95644196
C      -0.09628552      1.07008305     -0.13706241
C      -0.89905692      1.76621917     -1.07042419
C      -1.18794333      3.12300345     -0.91040578
C      -0.68822751      3.80111739      0.19078872
F      -0.96454742      5.10202973      0.34804400
C       0.08651496      3.14465974      1.13589744
C       0.37491635      1.78519983      0.97745637
C      -1.10716051     -1.23966624     -0.09945566
C      -1.78830987     -1.90528456     -1.13574951
C      -2.96031795     -2.62571459     -0.88244919
C      -3.47708121     -2.69430725      0.40919379
C      -2.82111590     -2.04230298      1.44875920
C      -1.65400715     -1.32671750      1.18994999
F      -1.04701588     -0.71969013      2.21941690
H       0.95386462      0.22879092     -2.04039125
H       1.19558226     -0.97233669      1.55343250
H       1.36889093     -2.15832221      0.26604055
H       3.15069037     -1.67371978     -1.64763374
H       5.23757266      1.07013412      0.69812919
H      -1.31633283      1.24491285     -1.93155979
H      -1.80336166      3.64969261     -1.63261519
H       0.46064041      3.69016278      1.99686208
H       0.96823650      1.30690876      1.75355508
H      -1.41453896     -1.87014254     -2.15770280
H      -3.47058797     -3.13215669     -1.69890780
H      -4.38911172     -3.25285919      0.60369124
H      -3.21072831     -2.08377627      2.46129983
