34
CCCCCC1(CC)C(=O)NC(=O)NC1=O
C       4.92525537     -0.62347419     -0.41789615
C       3.48836836     -1.11010531     -0.31808362
C       2.50456940      0.05811838     -0.25567241
C       1.05854866     -0.43599592     -0.15493564
C       0.07502030      0.74591940     -0.09352310
C      -1.41513982      0.33921236      0.03261093
C      -2.34243303      1.59207061     -0.01294559
C      -2.04333113      2.67234458      1.02088111
C      -1.84255356     -0.51858001     -1.15292410
O      -1.32956652     -0.45237622     -2.26745639
N      -2.91196291     -1.34478653     -0.93998258
C      -3.27614266     -1.83095298      0.27641395
O      -3.94352108     -2.85447469      0.38275086
N      -2.79454683     -1.18191136      1.36915822
C      -1.67781020     -0.39391289      1.34161984
O      -0.98331217     -0.27470981      2.34779875
H       5.19433568     -0.01413855      0.45080440
H       5.07368557     -0.02107876     -1.31979554
H       5.61162596     -1.47489440     -0.46132510
H       3.26180395     -1.74207854     -1.18466878
H       3.38170472     -1.73509518      0.57617816
H       2.73871439      0.68897857      0.61047419
H       2.61798649      0.68193384     -1.15066345
H       0.95522028     -1.06216738      0.73802193
H       0.83938333     -1.07248010     -1.01870529
H       0.36369306      1.37244601      0.75950460
H       0.21039515      1.36132004     -0.99287041
H      -2.28512638      2.05070292     -1.00948236
H      -3.39055974      1.28934166      0.11406615
H      -2.78933102      3.47081364      0.94730761
H      -2.07997239      2.27805041      2.04025440
H      -1.06324729      3.12848106      0.85562341
H      -3.17898480     -1.91991159     -1.72793952
H      -2.95276913     -1.66660907      2.24296999
