49
CCC(C)c1cc(C(C)CC)c(O)c(C(C)CC)c1
C      -2.06621599      4.13260739     -1.81969478
C      -1.69345529      2.71294168     -1.41450147
C      -0.65988641      2.65551420     -0.27140407
C      -1.19819219      3.23583274      1.04128664
C      -0.16247345      1.23098327     -0.06760709
C      -1.02220880      0.20426906      0.34912909
C      -0.56558293     -1.11183158      0.54589328
C      -1.52928627     -2.18811570      1.04030005
C      -2.40824235     -1.70519683      2.20411604
C      -2.36143450     -2.72028915     -0.14321669
C      -3.21644517     -3.92902103      0.21105183
C       0.78577983     -1.38696944      0.26445955
O       1.27847940     -2.66164173      0.36155642
C       1.68111429     -0.37955558     -0.13430078
C       3.15140555     -0.68154485     -0.40296483
C       3.48098779     -0.46104741     -1.88517991
C       4.11029617      0.13747428      0.48720352
C       3.95484102     -0.17044553      1.97161133
C       1.18511638      0.92533883     -0.29646217
H      -2.72702059      4.11176332     -2.69237696
H      -2.59614074      4.65323682     -1.01689799
H      -1.17657732      4.71308833     -2.08331477
H      -2.60769814      2.17361935     -1.13779873
H      -1.28653795      2.20226032     -2.29705852
H       0.19639284      3.27705174     -0.56692723
H      -0.46874432      3.11577909      1.85050134
H      -1.40298921      4.30660583      0.94400925
H      -2.12643169      2.74531252      1.35375375
H      -2.06942747      0.44029367      0.52402553
H      -0.94314021     -3.01770375      1.45438593
H      -1.80362086     -1.21660706      2.97655515
H      -3.17632215     -0.99732814      1.87562367
H      -2.92194894     -2.54773361      2.67886430
H      -3.01017379     -1.92905053     -0.53982218
H      -1.68941910     -3.00785842     -0.96224356
H      -3.70638016     -4.31771834     -0.68757618
H      -2.60578959     -4.73119284      0.63712155
H      -4.00073240     -3.66985526      0.92814677
H       0.56546787     -3.28035221      0.14018786
H       3.35655419     -1.73902848     -0.19703877
H       3.38218385      0.59046662     -2.17582170
H       4.50997281     -0.76905540     -2.10056436
H       2.81536830     -1.04983942     -2.52634068
H       5.14465917     -0.09057563      0.20006515
H       3.97563191      1.21380393      0.32827506
H       4.70733694      0.37657110      2.54867415
H       2.96987469      0.12697669      2.34377229
H       4.09041670     -1.23897542      2.16681626
H       1.86063830      1.71674255     -0.61512674
