42
COc1ccccc1NC(=O)C(N=Nc1ccc(Cl)cc1[N+](=O)[O-])C(C)=O
C      -3.40741979     -0.74635633     -2.54920403
O      -2.75224363     -0.42832895     -1.32632203
C      -3.06305114     -1.19163297     -0.22887826
C      -4.00767872     -2.22205841     -0.20933775
C      -4.26865058     -2.91226533      0.97421185
C      -3.59063605     -2.57350811      2.14058586
C      -2.64266699     -1.54556352      2.13288322
C      -2.36244835     -0.85573045      0.95231031
N      -1.38291795      0.16273682      0.85283644
C      -0.63463306      0.74095854      1.87069520
O      -0.73648114      0.47871231      3.06161499
C       0.33612522      1.79839881      1.36585857
N       1.38592132      1.10246968      0.58953086
N       1.78383366      1.78270209     -0.38123944
C       2.69457541      1.02213436     -1.14793569
C       4.02240479      0.86987201     -0.71203650
C       4.95386535      0.15418399     -1.48129955
C       4.56745573     -0.40990363     -2.70222632
Cl      5.72012342     -1.28507119     -3.64233057
C       3.26124914     -0.26237702     -3.16870148
C       2.34372183      0.45066341     -2.38275269
N       0.98867126      0.60899216     -2.87695376
O       0.05834733      0.28635831     -2.12228042
O       0.85896368      1.03720986     -4.03387194
C       1.01437064      2.59138325      2.46594167
C       1.91554852      1.86900801      3.43600393
O       0.83268374      3.80912117      2.57833574
H      -3.15468258     -1.76092652     -2.87627706
H      -4.48729966     -0.61285120     -2.46316560
H      -3.04721988     -0.04791709     -3.31201963
H      -4.55538569     -2.51511531     -1.10070317
H      -5.00025078     -3.71847350      0.98300256
H      -3.78943128     -3.11810299      3.05483593
H      -2.12779972     -1.32294091      3.06035187
H      -1.23273687      0.47864711     -0.10560683
H      -0.22649439      2.50116812      0.73531951
H       4.33206592      1.32152905      0.22913014
H       5.98138007      0.04946419     -1.12548534
H       2.96531917     -0.68463699     -4.12585457
H       1.33088967      1.42836610      4.24679715
H       2.49115228      1.08950625      2.92780544
H       2.63146010      2.58017484      3.85239801
