61
C=CC(C)(O)CCCC(C)CCCC(C)CCCC(C)C
C      -7.45244279     -0.06697529     -2.44736848
C      -6.44117020     -0.17699989     -1.57237011
C      -6.47562225     -0.82957546     -0.20606500
C      -5.64718009     -2.11772951     -0.21812585
O      -7.81739848     -1.25458501      0.08352405
C      -6.08002696      0.13832388      0.93711305
C      -4.82439457      1.01339423      0.80340716
C      -3.50188644      0.24836933      0.73862250
C      -2.25121487      1.15533654      0.82300559
C      -2.09282094      1.77167450      2.21704388
C      -1.00528708      0.32870654      0.43008560
C       0.27576404      1.16190037      0.30244550
C       1.42988397      0.31312825     -0.24439074
C       2.79059595      1.04591643     -0.26629225
C       2.76240030      2.25599444     -1.20556886
C       3.89449724      0.03820889     -0.66302863
C       5.31618968      0.59470435     -0.53109587
C       6.40709915     -0.42018980     -0.89804206
C       6.46983628     -1.69350624     -0.03209556
C       7.60422225     -2.59675732     -0.52550593
C       6.66644097     -1.38208093      1.45232269
H      -8.43981286     -0.46994986     -2.24624972
H      -7.30048829      0.41036269     -3.41113985
H      -5.47420661      0.21844097     -1.88097076
H      -6.12027560     -2.87555129     -0.85593652
H      -5.59383905     -2.55752786      0.78484750
H      -4.62960184     -1.97594233     -0.58720013
H      -8.37812543     -0.46164022      0.05835211
H      -6.92097635      0.82889948      1.10123916
H      -6.01518830     -0.43072752      1.87529026
H      -4.91307519      1.66995358     -0.06995478
H      -4.81947011      1.67801741      1.67409868
H      -3.46290359     -0.28073391     -0.21790406
H      -3.46564518     -0.50710004      1.53303215
H      -2.36664117      1.96943995      0.09574968
H      -1.23271800      2.44625579      2.25942196
H      -2.96479273      2.36800508      2.49829856
H      -1.95401973      0.99620302      2.97781436
H      -0.84800100     -0.47333850      1.16286011
H      -1.19540665     -0.16018881     -0.53434611
H       0.08201965      2.00960020     -0.36345857
H       0.56318812      1.56501621      1.27951284
H       1.18087571     -0.03231861     -1.25628128
H       1.52271436     -0.58529239      0.37982546
H       3.00324100      1.40484038      0.74925733
H       1.99925975      2.97939575     -0.90405866
H       2.55351999      1.95098298     -2.23656261
H       3.71431620      2.79444654     -1.19638123
H       3.73050657     -0.30301013     -1.69296294
H       3.79794797     -0.84311277     -0.01891343
H       5.47760784      0.97252334      0.48423409
H       5.43823383      1.45219502     -1.20175541
H       7.37574694      0.09514949     -0.84722873
H       6.27110535     -0.71118265     -1.94817311
H       5.53521283     -2.25542511     -0.14591754
H       7.46037769     -2.86210645     -1.57803249
H       8.57707297     -2.10290465     -0.42983124
H       7.63902803     -3.52726512      0.05039198
H       7.55825678     -0.76648416      1.61448978
H       6.78346584     -2.30548614      2.03112629
H       5.80400512     -0.84969765      1.86466705
