23
O=[p+]1oc2ccccc2c2ccccc21
O      -1.27125020      3.09128832      1.72947457
P      -0.47100214      2.56585726      0.36174342
O       0.83314426      1.92516228      1.07650973
C       1.48308831      0.84052814      0.53589185
C       2.87369000      0.82368724      0.68498549
C       3.61437300     -0.22585846      0.15276816
C       2.96320512     -1.25416255     -0.52129113
C       1.56840916     -1.24502748     -0.64778938
C       0.78853694     -0.20771284     -0.10498697
C      -0.69634178     -0.18674565     -0.17663685
C      -1.45602602     -1.34705714     -0.42694506
C      -2.85356034     -1.31285643     -0.47222635
C      -3.53019212     -0.11890212     -0.25818680
C      -2.80925640      1.04293454      0.00302971
C      -1.40210911      1.02015456      0.04820855
H       3.37546894      1.63290464      1.20932424
H       4.69592804     -0.24049960      0.25984588
H       3.53914477     -2.07288574     -0.94686364
H       1.10927144     -2.06908352     -1.18763915
H      -0.97607992     -2.31204078     -0.56823624
H      -3.41202323     -2.22666636     -0.66124493
H      -4.61666149     -0.09283330     -0.28049757
H      -3.34975721      1.96981500      0.19076246
