47
CC(C)(CF)n1cc(C(=O)O)c(=O)c2cc(F)c(N3CCNCC3)cc21
C      -1.42269552     -2.49592748      1.28235856
C      -2.07725123     -1.82797526      0.05816016
C      -1.36715363     -2.18105355     -1.27052644
C      -3.48658671     -2.49764956     -0.07690637
F      -3.35185807     -3.83114759     -0.33208498
N      -2.16604395     -0.30975116      0.25944580
C      -3.38769518      0.31459347      0.54314259
C      -3.66559849      1.62580780      0.53434238
C      -5.03860165      2.08204021      0.83718832
O      -5.94558051      1.31863386      1.13757081
O      -5.21979630      3.41717739      0.75304801
C      -2.56160929      2.53075415      0.19966345
O      -2.76984391      3.73595020      0.07536127
C      -1.21199668      1.94675198      0.06387249
C      -0.14230728      2.83339819     -0.09159058
C       1.15147192      2.34149545     -0.16467420
F       2.13632279      3.23727078     -0.33716762
C       1.42990691      0.96966357     -0.07618769
N       2.71849904      0.45029569     -0.11641697
C       2.99214819     -0.92698420     -0.56436538
C       4.38036346     -1.02925977     -1.23678140
N       5.51481160     -0.60559033     -0.39739362
C       5.11374551      0.44129588      0.55969339
C       3.89501215      1.29866753      0.14453478
C       0.31002430      0.11487098      0.08170418
C      -1.03140774      0.54703306      0.12502820
H      -1.37818713     -3.58434743      1.16059480
H      -2.00181149     -2.28613666      2.18971364
H      -0.40499828     -2.16117244      1.48215850
H      -1.81208182     -1.62545787     -2.10458866
H      -1.45664923     -3.24922959     -1.50059356
H      -0.29695754     -1.97950446     -1.27971722
H      -4.06451084     -2.06317717     -0.89964035
H      -4.07051567     -2.42278496      0.84552156
H      -4.19875627     -0.35842245      0.80123306
H      -4.41043578      3.91773502      0.48381044
H      -0.29998966      3.90675993     -0.14969243
H       2.94150529     -1.60590641      0.29535304
H       2.24886034     -1.25336430     -1.30168542
H       4.37264734     -0.41057912     -2.14373604
H       4.55405626     -2.06153002     -1.55911125
H       6.25026784     -0.24767706     -1.00629980
H       5.97249735      1.09501854      0.75001551
H       4.88493039     -0.05383229      1.51182965
H       4.14180788      1.87640096     -0.75440331
H       3.69252268      1.99742147      0.96499394
H       0.53951862     -0.93057500      0.22322472
