17
Cc1ncc2nccnc2n1
C       3.16945520      0.20915451      0.54588639
C       1.75600325     -0.03820538      0.12056697
N       1.53715858     -0.98470832     -0.80297301
C       0.24491197     -1.19194406     -1.13433400
C      -0.82764622     -0.52045202     -0.59675947
N      -2.11260012     -0.77073415     -0.96905729
C      -3.05094072     -0.03060750     -0.34909147
C      -2.71585203      0.91312031      0.59722018
N      -1.43470863      1.15355104      0.95964407
C      -0.47152020      0.43829734      0.36557415
N       0.79122866      0.67360114      0.72140497
H       3.41806784     -0.43808312      1.39186833
H       3.86149739     -0.00140386     -0.27520756
H       3.30366621      1.25239683      0.84770691
H       0.08068695     -1.95773061     -1.88721784
H      -4.08011592     -0.21683912     -0.63359379
H      -3.46929224      1.51058699      1.09836243
