23
Clc1ccc(Oc2c(Cl)cccc2Cl)cc1Cl
Cl      5.18462708     -0.98577366      0.92055121
C       3.61686008     -0.37909569      0.52346584
C       3.43901551      1.00616876      0.51160615
C       2.19088760      1.54783458      0.19798728
C       1.11154419      0.71155837     -0.09831976
O      -0.06607353      1.36392958     -0.40035421
C      -1.23658437      0.64443125     -0.33875360
C      -1.88560062      0.42921547      0.88386951
Cl     -1.24187850      1.02321780      2.37211172
C      -3.09335926     -0.27331541      0.92268209
C      -3.66723489     -0.74638843     -0.25810333
C      -3.03894105     -0.50942164     -1.48107057
C      -1.83139493      0.19222277     -1.52319538
Cl     -1.09773723      0.46885183     -3.06141019
C       1.28985079     -0.67451850     -0.09883886
C       2.54067958     -1.21944813      0.21566142
Cl      2.68863254     -2.94224536      0.20234684
H       4.26729075      1.67081682      0.74537999
H       2.05803963      2.62771864      0.19028105
H      -3.59670316     -0.44857176      1.87108388
H      -4.60871984     -1.29062534     -0.22593491
H      -3.49745220     -0.87022442     -2.39917782
H       0.47425183     -1.34633755     -0.34767407
