15
O=c1ccccc(Br)c1O
O       0.94467579     -2.47295072     -0.02674274
C       0.41637604     -1.37249092     -0.00760551
C      -1.09012324     -1.35789532      0.09320011
C      -1.84044055     -0.25643412      0.12721058
C      -1.43927349      1.01757535      0.08145172
C      -0.22807848      1.58460137     -0.00816085
C       1.02509245      1.09737178     -0.08498321
Br      2.41433537      2.41788217     -0.19768812
C       1.39057921     -0.19647028     -0.09034048
O       2.73237601     -0.57504219     -0.17471408
H      -1.57757963     -2.32738051      0.14023804
H      -2.91819497     -0.41930437      0.20189246
H      -2.26341511      1.73865270      0.12604321
H      -0.28942480      2.67876452     -0.02024274
H       2.72309541     -1.55687946     -0.15955840
