24
OC[C@H]1OC(O)[C@H](O)[C@@H](O)[C@@H]1O
O       2.67000995      1.78642383     -1.55912746
C       1.70629892      0.76964036     -1.84798380
C       0.99144991      0.31168404     -0.56700741
O       0.20334482      1.40787599     -0.06631891
C      -0.45384210      1.09346410      1.14847093
O      -1.20165292      2.23032885      1.55529652
C      -1.43451863     -0.07286196      0.96066392
O      -2.07113967     -0.42689282      2.19731269
C      -0.67917965     -1.28260284      0.42195921
O      -1.59051367     -2.34869569      0.11245121
C       0.10254895     -0.91086887     -0.84112576
O       0.88965725     -2.03413141     -1.24476519
H       3.35670987      1.38594247     -1.00007917
H       0.99011777      1.20053979     -2.55503243
H       2.23154165     -0.05478352     -2.33972488
H       1.75809844      0.07043775      0.18157486
H       0.27578100      0.88044120      1.93896244
H      -0.56082920      2.96204278      1.51090276
H      -2.23753565      0.20529690      0.26667576
H      -2.43091679      0.41520705      2.54433714
H      -0.00203346     -1.68653061      1.18509447
H      -2.18305200     -2.41107214      0.88961626
H      -0.60186160     -0.69652514     -1.65479758
H       0.27151682     -2.79436014     -1.23735559
