32
CCNC(=O)c1cc(N2CC2)c([N+](=O)[O-])cc1[N+](=O)[O-]
C       4.50914068     -0.57705113      1.35688972
C       3.32503915     -0.16130672      2.21098535
N       2.06678472     -0.49344560      1.57156315
C       1.49508354      0.33682431      0.63754966
O       1.92807669      1.44497123      0.34557704
C       0.24763545     -0.12419315     -0.01497278
C      -0.79118598      0.82320161     -0.12635421
C      -2.00837440      0.51985323     -0.76507944
N      -3.09251162      1.42542146     -0.88698221
C      -2.82575590      2.84291684     -1.15816752
C      -3.36539238      2.40773406      0.16623191
C      -2.13037716     -0.77407886     -1.30707256
N      -3.35347141     -1.15217543     -1.98257234
O      -3.47145340     -0.81168414     -3.16637132
O      -4.14439710     -1.85646605     -1.34101887
C      -1.11734073     -1.73734822     -1.23189086
C       0.06710242     -1.38726867     -0.58085700
N       1.11887278     -2.37255495     -0.54092056
O       1.73352235     -2.58177384     -1.59116743
O       1.29006656     -2.95216927      0.54000436
H       4.50330697     -0.05800984      0.39284844
H       5.44848680     -0.34264613      1.86668286
H       4.48608557     -1.65316226      1.15509740
H       3.34934538     -0.68511735      3.17165846
H       3.36029744      0.91581025      2.40507783
H       1.69091471     -1.41875840      1.76125564
H      -0.62385708      1.81361817      0.29617680
H      -1.79049225      3.13743849     -1.25047694
H      -3.51011715      3.26630718     -1.88182919
H      -4.42300183      2.53525168      0.35761714
H      -2.72261385      2.39213551      1.03350325
H      -1.24941897     -2.72227400     -1.67582242
