51
C=C(C)C1Cc2c(ccc3c2OC2COc4cc(OC)c(OC)cc4C2C3=O)O1
C       7.42419035     -1.37174817      1.02186185
C       6.49738474     -0.56695650      0.47276526
C       6.69343585      0.92458989      0.42643548
C       5.22611086     -1.12014939     -0.14081238
C       3.95939975     -0.84658601      0.69328351
C       2.99939546     -0.57216456     -0.40092618
C       3.69171338     -0.39704951     -1.58890498
C       3.05628771     -0.06859809     -2.77079413
C       1.66597070      0.06489077     -2.75294779
C       0.95555514     -0.11974772     -1.55198805
C       1.62684353     -0.41724917     -0.35852086
O       1.00064055     -0.57433167      0.84779125
C      -0.27900623      0.07275397      0.86940867
C      -0.95166568     -0.18411021      2.20877342
O      -2.17574871      0.54104476      2.32755763
C      -3.01902465      0.41406733      1.25342912
C      -4.34142060      0.80063906      1.48798817
C      -5.30153914      0.69181290      0.47972793
O      -6.62179464      1.04016535      0.62127438
C      -7.02938893      1.57978317      1.87011324
C      -4.92302119      0.19036535     -0.77854970
O      -5.91952618      0.08883701     -1.71847881
C      -5.51556930     -0.06620732     -3.07267652
C      -3.59396236     -0.19499593     -1.00160429
C      -2.61590354     -0.05324355     -0.00332754
C      -1.18091630     -0.47408292     -0.23584181
C      -0.52499310     -0.03124294     -1.53294786
O      -1.12070499      0.31573823     -2.54700314
O       5.04669278     -0.55587014     -1.46932292
H       7.30033375     -2.45033711      1.05114937
H       8.33960870     -0.97433360      1.45109956
H       7.62323571      1.22962560      0.91884217
H       6.74154386      1.27542855     -0.60926307
H       5.87219480      1.44160337      0.93148915
H       5.32722296     -2.20563887     -0.28779845
H       3.68437192     -1.71980234      1.29258032
H       4.05201890      0.02729457      1.34554479
H       3.62220155      0.07131218     -3.68595716
H       1.13580052      0.30481970     -3.67271018
H      -0.13413141      1.15974503      0.76291133
H      -0.29326642      0.13943813      3.02319321
H      -1.13588495     -1.25361366      2.37625829
H      -4.59261872      1.17113476      2.47584172
H      -6.49753509      2.51092912      2.09175307
H      -6.90308914      0.84918785      2.67581316
H      -8.09573894      1.81546585      1.80050148
H      -5.11712956     -1.07064779     -3.24752689
H      -4.79483628      0.70363363     -3.36878796
H      -6.40369799      0.05130706     -3.70113156
H      -3.30286567     -0.61334591     -1.96057833
H      -1.15717376     -1.57356007     -0.23548804
