28
CSC(CCC(SC)C(=O)O)C(=O)O
C       1.63554507      1.06652287     -2.64504715
S       1.22111311      2.19050258     -1.28392097
C       1.92418738      1.23450191      0.13650316
C       1.28917502     -0.15319373      0.33432883
C      -0.23454630     -0.14769166      0.56622597
C      -0.78874016     -1.56579378      0.77993180
S      -2.40684416     -1.53408320      1.68387416
C      -3.37680272     -0.46084224      0.58602618
C      -0.94171722     -2.34606494     -0.52996137
O      -0.33190008     -2.10082189     -1.56118671
O      -1.79732961     -3.39481274     -0.44323462
C       1.85015302      2.04488600      1.43508805
O       2.15532044      1.59034263      2.53012037
O       1.43145816      3.32346995      1.29131840
H       1.01496419      0.16894929     -2.60639170
H       1.44109381      1.57346652     -3.59408487
H       2.69297848      0.79268460     -2.60959475
H       2.99396579      1.11747405     -0.07379704
H       1.53981230     -0.78629588     -0.52297964
H       1.76493938     -0.63636214      1.19834080
H      -0.73814799      0.31869409     -0.28748530
H      -0.44057057      0.47103537      1.44815855
H      -0.10331574     -2.14083016      1.41279208
H      -4.41141597     -0.44125325      0.93940760
H      -3.37207547     -0.84094634     -0.43826410
H      -2.99233502      0.56160100      0.60697848
H      -2.23889408     -3.41399709      0.43464240
H       1.21992895      3.50885816      0.34870613
