62
CC[C@@H]1CN2CC[C@H]1C[C@@H]2[C@@H](OC(=O)c1ccc(Cl)cc1)c1ccnc2ccc(OC)cc12
C       5.04089929     -2.14493284      0.64385232
C       4.34527988     -1.34025374     -0.44321651
C       2.91348009     -0.91612140     -0.07074673
C       2.23555286     -0.18145197     -1.25184703
N       1.62004668      1.09624204     -0.83335824
C       2.70737285      1.97342137     -0.33602704
C       3.40129874      1.36759824      0.89264955
C       2.80794625     -0.01889793      1.18618935
C       1.30477146      0.17093912      1.47091004
C       0.63239882      0.89727419      0.27792926
C      -0.71813156      0.24654410     -0.18814894
O      -0.55709262     -1.18602955     -0.31588162
C      -1.28238083     -1.78645980     -1.28910968
O      -2.05984431     -1.24517071     -2.05683648
C      -0.99603097     -3.24695292     -1.31450193
C      -1.57042940     -4.01498305     -2.33767536
C      -1.33137078     -5.39003438     -2.40826600
C      -0.51953767     -6.00088744     -1.45471647
Cl     -0.22611832     -7.69278695     -1.54021672
C       0.05601015     -5.24904664     -0.43139593
C      -0.18179463     -3.87287655     -0.35886726
C      -1.84431565      0.56721522      0.79857599
C      -2.17139832     -0.35400132      1.80354558
C      -3.17718883     -0.04292348      2.69529470
N      -3.86934103      1.10986780      2.66914433
C      -3.56844295      2.00581838      1.71751983
C      -4.28689830      3.19198993      1.70214603
C      -4.04825153      4.19707210      0.75966651
C      -3.06249513      4.01769399     -0.19871343
O      -2.71385961      4.90971013     -1.17361467
C      -3.48703285      6.10038278     -1.26154239
C      -2.32766135      2.82857986     -0.19947972
C      -2.55985873      1.79879948      0.74801154
H       5.23591633     -1.53690290      1.53123532
H       4.43916327     -3.01019360      0.93904170
H       6.00519766     -2.51230388      0.27774589
H       4.30380475     -1.95671188     -1.34978293
H       4.95915030     -0.46794753     -0.69312426
H       2.34464233     -1.83531613      0.12431429
H       2.95474263      0.01985478     -2.05678606
H       1.48680239     -0.83040184     -1.71663715
H       2.30703817      2.96474625     -0.09133644
H       3.44008027      2.14737445     -1.13396998
H       4.48091918      1.30083533      0.72190442
H       3.25714622      2.02291618      1.76013962
H       3.29000260     -0.47450372      2.05588846
H       1.17600856      0.77002668      2.38130817
H       0.85157419     -0.80484150      1.67426481
H       0.37547993      1.90967379      0.61986102
H      -0.97425234      0.65791798     -1.17160838
H      -2.20655744     -3.54465580     -3.08604989
H      -1.78119590     -5.97448248     -3.20676263
H       0.68817266     -5.72759627      0.31285524
H       0.27340859     -3.30538398      0.44867853
H      -1.65736922     -1.30440993      1.89887994
H      -3.46160433     -0.73456878      3.48288896
H      -5.06123818      3.34210562      2.45179413
H      -4.64868675      5.09851776      0.81130870
H      -3.10149722      6.68667698     -2.10074319
H      -3.38153713      6.70767482     -0.35561784
H      -4.53893129      5.87535529     -1.46644444
H      -1.56196195      2.72120629     -0.96451887
