27
COc1ccc(OC)c(NC(C)=O)c1
C       2.81980698      2.72338795      0.77668696
O       3.11035435      1.33317744      0.68286843
C       2.06620685      0.50423493      0.37334279
C       2.40515704     -0.84687626      0.28742868
C       1.44093355     -1.80923308     -0.02075346
C       0.11967331     -1.42183317     -0.24704248
O      -0.91161775     -2.27949777     -0.55677947
C      -0.59258037     -3.66297419     -0.65149156
C      -0.23167494     -0.05684346     -0.16239021
N      -1.58805448      0.26466910     -0.40258554
C      -2.19067902      1.50429563     -0.39385801
C      -3.66439801      1.42936888     -0.70668566
O      -1.64874977      2.58552784     -0.19071022
C       0.74510448      0.89619854      0.14804734
H       2.10354590      2.92366220      1.58037819
H       2.46427550      3.11818470     -0.18082152
H       3.75079936      3.24226185      1.02469945
H       3.43421150     -1.15252610      0.46312945
H       1.75854033     -2.84451399     -0.07458809
H      -0.23128018     -4.05126357      0.30641502
H       0.12923888     -3.84766218     -1.45384030
H      -1.51227254     -4.20041956     -0.90201520
H      -2.16093050     -0.54702056     -0.61377489
H      -3.80817618      1.51474849     -1.78689478
H      -4.18275948      2.25021866     -0.20270657
H      -4.09806355      0.48937958     -0.35348780
H       0.47338874      1.94134809      0.21413715
