33
Nc1nc2c(ncn2CCC(CO)CO)c(=O)[nH]1
N       2.63002908      2.20741597     -0.98099025
C       2.47880507      1.22503731     -0.05684924
N       1.67873504      0.22628798     -0.30752125
C       1.57154100     -0.64685043      0.71738421
C       2.21718999     -0.62459944      1.93095194
N       1.82261789     -1.67375438      2.72456121
C       0.93292409     -2.31928662      1.99483655
N       0.73443446     -1.72041924      0.77680780
C      -0.17538144     -2.15802419     -0.25885380
C      -1.58089410     -1.55229876     -0.15069637
C      -1.68285826     -0.02727899     -0.36855118
C      -3.11294113      0.43660906     -0.03493533
O      -3.22625176      1.84708049     -0.20488023
C      -1.29846697      0.39772480     -1.79752782
O      -1.15717657      1.81388892     -1.89488245
C       3.14277017      0.46131796      2.17697837
O       3.82149684      0.61160770      3.18836890
N       3.18749924      1.36347194      1.11991053
H       1.89408657      2.14540409     -1.68466263
H       2.69376652      3.14681644     -0.61121302
H       0.40388892     -3.21316232      2.29949128
H      -0.24871732     -3.24930578     -0.17300645
H       0.28584241     -1.95616359     -1.23041496
H      -2.22658321     -2.05734888     -0.88078094
H      -1.98579618     -1.79582768      0.84057291
H      -1.01993873      0.49751722      0.32947265
H      -3.35882670      0.19816230      1.00540762
H      -3.84697768     -0.04730021     -0.68802285
H      -4.10776783      2.10043493      0.12577051
H      -0.34783226     -0.03538565     -2.11405318
H      -2.06032556      0.08119198     -2.51810656
H      -1.89559780      2.19356838     -1.36969893
H       3.83670621      2.12346872      1.22859757
