53
CN1CCC23c4c5ccc(OCc6ccccc6)c4OC2C(O)C=CC3C1C5
C      -3.34642260     -0.92183187     -3.75162490
N      -3.11970907     -1.30695930     -2.36204268
C      -1.82434493     -1.98171168     -2.20291043
C      -1.55524900     -2.41744405     -0.75168922
C      -1.86371546     -1.28921533      0.25607359
C      -0.89952237     -0.17341022      0.04084973
C      -1.06415156      0.88942312     -0.82149051
C      -0.01008461      1.79710484     -0.89690682
C       1.14905185      1.62160175     -0.10181864
C       1.25686135      0.56319936      0.81454297
O       2.30050174      0.31784208      1.65584486
C       3.31091593      1.31751638      1.79991913
C       4.38738528      1.24940950      0.73891935
C       5.08274825      2.41236367      0.37466394
C       6.09832572      2.36196723     -0.58206109
C       6.43737844      1.14839675     -1.17678618
C       5.76536757     -0.01633460     -0.81219365
C       4.75035720      0.03223688      0.14473253
C       0.19532460     -0.31862274      0.87207273
O       0.02443163     -1.37145708      1.75009450
C      -1.43449093     -1.61757579      1.69314234
C      -2.10088708     -0.73178154      2.78970856
O      -2.48696940     -1.54779389      3.89909600
C      -3.31638596      0.04333017      2.37465610
C      -3.84680959      0.03570567      1.14300111
C      -3.30650219     -0.82543220      0.03309154
C      -3.34596728     -0.19477246     -1.39783166
C      -2.38116174      1.03890999     -1.53495343
H      -4.32357337     -0.44073179     -3.86859330
H      -3.35937760     -1.81073436     -4.39245574
H      -2.57729850     -0.24439859     -4.13594999
H      -1.00536453     -1.34363118     -2.55745092
H      -1.80376447     -2.88181744     -2.83018213
H      -0.51535350     -2.75984002     -0.67295005
H      -2.18506312     -3.28631110     -0.51768105
H      -0.07083218      2.65413732     -1.56399321
H       1.94751067      2.34730031     -0.22201141
H       3.79523762      1.13282365      2.76647081
H       2.86415235      2.31733842      1.87048817
H       4.83750035      3.36718568      0.83440051
H       6.62791890      3.26916386     -0.86109066
H       7.22828649      1.10875580     -1.92100818
H       6.03153857     -0.96510861     -1.27071174
H       4.23751015     -0.88703651      0.42240457
H      -1.58644177     -2.68000143      1.91964565
H      -1.37667884     -0.00943837      3.18678008
H      -1.66365264     -1.92498974      4.25647173
H      -3.77990573      0.65185991      3.14763592
H      -4.74762419      0.61231717      0.94703633
H      -3.96916446     -1.70529478      0.03018389
H      -4.36683206      0.17177001     -1.57372013
H      -2.20549733      1.28544433     -2.58674374
H      -2.88950660      1.90657279     -1.09345966
