21
Cn1cnc2c1c(=O)[nH]c(=O)n2C
C       3.12578182     -0.08468775     -0.09413601
N       1.77799477      0.42163989     -0.04425303
C       1.40661478      1.74025330     -0.00718487
N       0.09533729      1.87749518      0.03431742
C      -0.37921988      0.60126067      0.02311059
C       0.63104490     -0.31611990     -0.02491927
C       0.39688101     -1.71606272     -0.04568418
O       1.26921964     -2.57563765     -0.08849153
N      -0.94526558     -2.02232049     -0.01204049
C      -2.00817470     -1.13712909      0.03690993
O      -3.15376408     -1.58744726      0.06188973
N      -1.70356546      0.22025975      0.05474846
C      -2.75540889      1.21644127      0.10556618
H       3.24351503     -0.67071111     -1.00902130
H       3.82962540      0.75151854     -0.09841430
H       3.29668012     -0.70626420      0.78832432
H       2.12249607      2.55280365     -0.01228805
H      -1.18757729     -3.00020688     -0.02421596
H      -2.68421619      1.85728736     -0.77885946
H      -2.63133924      1.82192221      1.00887145
H      -3.74665951      0.75570523      0.12577039
