19
CCc1nccnc1C
C      -0.80317604      2.23136127      0.44115680
C      -0.86328753      1.19486259     -0.67044278
C       0.18359163      0.12767342     -0.49304922
N       1.40057549      0.39884506     -1.03878300
C       2.35426853     -0.54164478     -0.86969647
C       2.11961529     -1.71371575     -0.18037688
N       0.92090863     -1.99818005      0.37177635
C      -0.05173113     -1.06093601      0.21250012
C      -1.38115492     -1.38392840      0.82353878
H      -1.56227965      3.00329051      0.27983627
H      -0.98287880      1.77871815      1.42169472
H       0.17623770      2.72088761      0.47350560
H      -0.69850397      1.69370199     -1.63362271
H      -1.86509997      0.75670470     -0.72766831
H       3.32108684     -0.32376590     -1.30762879
H       2.89299153     -2.46154834     -0.05131453
H      -1.68153413     -0.60587419      1.53116834
H      -1.33585125     -2.33093168      1.37187102
H      -2.14377827     -1.48552021      0.04553470
