92
CC(C)CCCC(C)CCCC(C)CCCCC(C)CCCC(C)CCCC(C)C
C      -9.86963390      0.36860770      0.60686810
C      -9.22524652     -0.71596778     -0.25912339
C     -10.08307577     -0.94474261     -1.50894286
C      -9.04988818     -2.04151339      0.50123474
C      -8.13971484     -2.00415764      1.73838003
C      -6.66017346     -1.72991920      1.43058030
C      -6.21281703     -0.25771520      1.57617952
C      -6.22801228      0.18240808      3.04571144
C      -4.80361288     -0.09439164      0.96177525
C      -4.35930327      1.36738494      0.83876399
C      -3.04922460      1.54129843      0.05775106
C      -1.81220320      0.86576906      0.68264238
C      -1.51744468      1.38794019      2.09267255
C      -0.57134289      0.98340608     -0.23024183
C      -0.13796532      2.41478652     -0.57004982
C       1.26899086      2.48408617     -1.17595873
C       1.39735803      1.75528289     -2.51672365
C       2.78970821      1.90727370     -3.16633715
C       2.81727085      1.16993216     -4.50881544
C       3.96680941      1.47254023     -2.26707057
C       3.89474297      0.02954848     -1.75431794
C       5.01884289     -0.25467879     -0.75016569
C       4.91977020     -1.65392179     -0.11753477
C       5.19033470     -2.76345771     -1.13916669
C       5.81408527     -1.80683194      1.13386059
C       7.32823565     -1.64166262      0.93365165
C       7.82067102     -0.21453534      1.21361550
C       9.34620235     -0.01262751      1.10906375
C       9.87890163     -0.30814866     -0.29390258
C      10.11406865     -0.82197905      2.15578513
H      -9.24650508      0.62138450      1.46974522
H     -10.01123929      1.28946262      0.02993260
H     -10.84913223      0.04827132      0.98100948
H      -8.24593534     -0.36203731     -0.60080652
H     -11.08638730     -1.29755891     -1.24327155
H     -10.18941164     -0.01891816     -2.08361205
H      -9.62238607     -1.69112935     -2.16422534
H     -10.03807304     -2.39963738      0.82010669
H      -8.66345013     -2.80297040     -0.18973679
H      -8.53978109     -1.31697306      2.48812384
H      -8.19574870     -3.00220193      2.19314917
H      -6.05076162     -2.33868024      2.11181210
H      -6.43317033     -2.09365314      0.42073517
H      -6.89936920      0.38698539      1.02014680
H      -5.94731304      1.23380742      3.15036311
H      -5.52841866     -0.41398739      3.64090316
H      -7.22246619      0.07977878      3.48930973
H      -4.08281816     -0.65810155      1.56543694
H      -4.79667800     -0.53955681     -0.04177557
H      -5.13892440      1.93435999      0.31608891
H      -4.25821387      1.82358450      1.82792006
H      -2.86666326      2.61821912     -0.04274835
H      -3.19396926      1.15568921     -0.95947160
H      -2.01292021     -0.20906751      0.77259292
H      -0.56800366      0.99045217      2.46838734
H      -1.46389233      2.48109261      2.11817563
H      -2.29721225      1.07642702      2.79500739
H      -0.78122785      0.44392693     -1.16160644
H       0.26230385      0.45406792      0.24805925
H      -0.85416939      2.86781449     -1.26533957
H      -0.13630903      3.03130344      0.33478438
H       1.97688460      2.07203595     -0.44822506
H       1.53560636      3.53916643     -1.31542130
H       1.16257464      0.69209482     -2.39305178
H       0.64318801      2.15427311     -3.20711617
H       2.93792040      2.97378350     -3.38472270
H       2.61941090      0.10012818     -4.38867427
H       2.05678663      1.57403272     -5.18550587
H       3.79006810      1.28566615     -4.99814739
H       4.90442004      1.60239696     -2.82273445
H       4.03436228      2.15933413     -1.41522791
H       3.96715803     -0.66125663     -2.60048413
H       2.93278092     -0.15274807     -1.26378978
H       4.96757047      0.49737099      0.04714879
H       5.98641061     -0.13287715     -1.25162760
H       3.88725011     -1.78980048      0.23334784
H       5.21355720     -3.74463552     -0.65359236
H       6.14273576     -2.61675206     -1.65795309
H       4.40233177     -2.79966510     -1.89774823
H       5.46457285     -1.11754076      1.91266423
H       5.64147093     -2.81448473      1.53561923
H       7.62271336     -1.96267832     -0.06855545
H       7.82406136     -2.32052116      1.63567679
H       7.49998088      0.08154986      2.22119548
H       7.33974067      0.48558555      0.52330319
H       9.53890205      1.04955292      1.31514345
H       9.32442026      0.25933584     -1.04890455
H       9.80741337     -1.37215869     -0.54158472
H      10.93478669     -0.02425391     -0.36934699
H      10.05601256     -1.89791869      1.96418323
H       9.72251832     -0.63069111      3.16118977
H      11.17430277     -0.54449282      2.15085463
