37
CCN(CC)C(=O)/C(C#N)=C/c1cc(O)c(O)c([N+](=O)[O-])c1
C      -4.32891603     -2.15677632     -0.40778233
C      -4.10405618     -1.10459990      0.66759256
N      -2.82597211     -0.41035245      0.49475877
C      -2.82883856      0.78597586     -0.35715007
C      -3.31825256      2.01943926      0.38639877
C      -1.69878043     -0.98821051      1.06917003
O      -1.72459956     -2.05347507      1.68487347
C      -0.39427705     -0.30689488      0.89016749
C      -0.11178301      0.84808240      1.66295454
N       0.14148220      1.80483678      2.26951598
C       0.45429252     -0.87461064      0.01319919
C       1.79526465     -0.37224220     -0.30325134
C       2.05675352      0.10854081     -1.58960538
C       3.32391422      0.58966036     -1.89964747
O       3.55104568      1.06047914     -3.16286858
C       4.35329351      0.60168262     -0.95884339
O       5.54941959      1.10618374     -1.40368733
C       4.09756758      0.10930496      0.32489616
N       5.14926992      0.08444649      1.34161480
O       6.24215293      0.59198759      1.04067022
O       4.89637354     -0.44425680      2.43180381
C       2.82024128     -0.38062148      0.65479487
H      -3.53716400     -2.91298026     -0.39346072
H      -4.34084800     -1.70644104     -1.40540713
H      -5.28675271     -2.66188638     -0.24988796
H      -4.12296967     -1.58709130      1.65170030
H      -4.91682351     -0.37108536      0.65587993
H      -1.82703924      0.97608238     -0.75171191
H      -3.47199490      0.58987823     -1.22231319
H      -2.71036988      2.21899905      1.27337374
H      -4.35452802      1.89969829      0.71748086
H      -3.27247646      2.89714287     -0.26564254
H       0.15519622     -1.76646308     -0.53643061
H       1.28458083      0.12042260     -2.35521910
H       4.48779422      1.34640316     -3.16503335
H       6.19745945      1.10978266     -0.66480894
H       2.62034004     -0.77104160      1.65268236
