48
C[C@@H](NCCCc1cccc(C(F)(F)F)c1)c1cccc2ccccc12
C      -0.52187030     -2.27331259      0.65407445
C      -1.33495725     -0.99030027      0.89555473
N      -0.46954935      0.19499908      1.04659964
C       0.29957409      0.55747690     -0.14534552
C       1.17999066      1.78514735      0.12715905
C       2.23437985      1.58812978      1.22304152
C       3.29280052      0.57173927      0.86763528
C       3.24508921     -0.71787664      1.41053776
C       4.21415940     -1.66348353      1.07771162
C       5.24112161     -1.33034690      0.19510822
C       5.30435411     -0.04838612     -0.37070234
C       6.42480167      0.32200617     -1.30965704
F       6.05374759      1.23523940     -2.25117036
F       6.91829461     -0.74235171     -2.00359414
F       7.48888646      0.86867438     -0.65913830
C       4.32679876      0.89814055     -0.02119780
C      -2.50310659     -0.75094942     -0.06558585
C      -2.42187301     -1.22120004     -1.39199890
C      -3.45601668     -1.01284262     -2.29837644
C      -4.59448489     -0.32228171     -1.90259686
C      -4.71597681      0.17480339     -0.59923600
C      -5.87733451      0.87674987     -0.23465661
C      -6.03457393      1.39069941      1.04973830
C      -5.02964167      1.20820268      1.98712991
C      -3.86906331      0.51090076      1.63892917
C      -3.67187716     -0.02817766      0.34254094
H       0.20877511     -2.42041645      1.45780883
H      -1.18107629     -3.14907400      0.64610545
H       0.02857058     -2.26882881     -0.29112929
H      -1.77644614     -1.16941381      1.88369551
H      -1.06132286      0.98708046      1.29803016
H      -0.37416409      0.81024385     -0.97143066
H       0.93311885     -0.26859831     -0.48036383
H       0.53830596      2.62973840      0.41021508
H       1.67129291      2.07433265     -0.81053211
H       2.73264894      2.54825267      1.41138063
H       1.75748442      1.31957004      2.17355794
H       2.44363786     -0.99251313      2.09431141
H       4.16707227     -2.66084921      1.50794281
H       5.99350934     -2.07742907     -0.05308286
H       4.37265171      1.89998982     -0.44778811
H      -1.54082419     -1.75099928     -1.74433344
H      -3.37204419     -1.38593751     -3.31573467
H      -5.39074585     -0.16990950     -2.62814259
H      -6.67638161      1.03042967     -0.95724868
H      -6.93940208      1.93083848      1.31437196
H      -5.14316232      1.60496777      2.99267231
H      -3.11517142      0.39712552      2.41340680
