43
COC(=O)[C@H]1[C@@H](OC(=O)c2ccccc2)C[C@H]2CC[C@@H]1N2C
C       0.43124599      2.17238565     -3.48231689
O      -0.07041608      0.94646009     -2.94876241
C      -0.92886756      1.10290212     -1.89985977
O      -1.28660083      2.18428444     -1.45170710
C      -1.39555882     -0.24822360     -1.40225780
C      -0.21563399     -1.12471015     -0.93902664
O       0.69023467     -0.32547667     -0.14284445
C       1.98169467     -0.73649573     -0.09275111
O       2.43346065     -1.74267719     -0.61444143
C       2.79537382      0.21222699      0.71352308
C       2.29491218      1.44504078      1.15529756
C       3.10374287      2.30101971      1.90666469
C       4.41249010      1.93316807      2.21761273
C       4.91833289      0.71081473      1.77733266
C       4.11346072     -0.14760553      1.02583736
C      -0.69805991     -2.33935238     -0.11768610
C      -1.89417881     -2.02353647      0.80414994
C      -1.59177957     -0.89165994      1.78775488
C      -1.99093279      0.38034952      1.03999187
C      -2.49583638     -0.10561442     -0.32639128
N      -2.96021185     -1.48747080     -0.06207180
C      -4.27944922     -1.53196350      0.56659163
H       1.11622612      1.93087058     -4.29969351
H      -0.38704051      2.77866541     -3.88299833
H       0.98613205      2.72450479     -2.71724378
H      -1.86763397     -0.73795432     -2.26799172
H       0.32553525     -1.47731399     -1.82698569
H       1.28095022      1.75744418      0.91826084
H       2.71243671      3.25678747      2.24734370
H       5.04020984      2.60168765      2.80211538
H       5.93971615      0.42569208      2.01757649
H       4.51812245     -1.09885286      0.68482155
H       0.11980998     -2.74567730      0.48843450
H      -1.00302492     -3.12969514     -0.81662964
H      -2.19268376     -2.94305998      1.32051563
H      -0.54594427     -0.87280449      2.10938672
H      -2.20626866     -0.99061435      2.69066531
H      -2.79877671      0.88176346      1.58701957
H      -1.16431016      1.09223250      0.97409375
H      -3.30007974      0.53606429     -0.70656737
H      -4.33962288     -0.98946181      1.51544251
H      -5.03090894     -1.11240492     -0.11126098
H      -4.57026699     -2.57173898      0.75239932
