27
CCCC(Br)(CCC)C(N)=O
C       3.36385094     -1.34537578      0.13132919
C       2.46054262     -0.13804801      0.34632501
C       1.00138403     -0.47030925     -0.00948522
C      -0.01406573      0.68782183      0.10023986
Br     -0.07912487      1.31893262      1.98167074
C      -1.45003554      0.26898758     -0.30975756
C      -1.97488281     -1.03715424      0.30011512
C      -3.42735061     -1.28059796     -0.08586227
C       0.37871224      1.90220510     -0.76617741
N      -0.30024427      3.07032322     -0.54576766
O       1.18110223      1.85037705     -1.69508728
H       4.39687514     -1.09674821      0.39418927
H       3.04828837     -2.18782602      0.75504025
H       3.34776874     -1.66594224     -0.91522311
H       2.54310948      0.16913005      1.39368047
H       2.83784452      0.68834793     -0.26263556
H       0.69197069     -1.29753669      0.64168304
H       0.97754464     -0.85748888     -1.03707571
H      -2.15648202      1.07618009     -0.07160512
H      -1.48289329      0.16503751     -1.40361078
H      -1.37960805     -1.88584736     -0.05338329
H      -1.90074863     -1.01445541      1.39202177
H      -4.07138643     -0.47540428      0.28183214
H      -3.78117069     -2.22196512      0.34615929
H      -3.53944227     -1.34229931     -1.17304199
H       0.03358001      3.87488259     -1.06205489
H      -0.70513842      3.24477320      0.36630163
