42
O=C(OCC([N+](=O)[O-])([N+](=O)[O-])[N+](=O)[O-])c1ccccc1C(=O)OCC([N+](=O)[O-])([N+](=O)[O-])[N+](=O)[O-]
O       2.55178649      2.72872929     -1.16434931
C       2.02460065      2.02487107     -0.32471065
O       2.32455953      0.72867988     -0.05349876
C       3.16992315      0.09981142     -1.04403942
C       3.26201850     -1.39875791     -0.82655616
N       1.91381939     -2.00375634     -0.95971721
O       1.58082255     -2.48107296     -2.05650002
O       1.12290237     -1.91127116     -0.00466609
N       4.15392437     -2.05150422     -1.81717949
O       4.45794200     -3.24330282     -1.65470526
O       4.56592735     -1.36408482     -2.76469846
N       3.86368185     -1.72973978      0.48784470
O       4.79909342     -1.01189966      0.87166971
O       3.46004727     -2.71152141      1.12709330
C       0.97790541      2.47359909      0.60690903
C       1.30750679      3.52510749      1.47343677
C       0.37209329      3.97936445      2.40170071
C      -0.89110301      3.39321371      2.45895680
C      -1.23042881      2.35933225      1.58125588
C      -0.29970482      1.89011360      0.63967346
C      -0.67854313      0.82843238     -0.33440217
O      -0.07853498      0.58394092     -1.36482089
O      -1.77175403      0.14324268      0.09636262
C      -2.19446644     -0.94697649     -0.76162116
C      -3.56969828     -1.47984414     -0.39141351
N      -3.56527429     -2.24170172      0.87815447
O      -4.38889762     -3.15675214      1.03823455
O      -2.72404230     -1.92989861      1.73535389
N      -4.53842454     -0.36731255     -0.28259403
O      -5.26399621     -0.27766899      0.71966692
O      -4.53733264      0.47157602     -1.20248311
N      -4.05335441     -2.40733473     -1.44335638
O      -5.24703465     -2.38476898     -1.78271344
O      -3.21268810     -3.16795155     -1.94800629
H       2.75019458      0.31303112     -2.03666879
H       4.15563645      0.57837633     -0.99408420
H       2.29233470      3.98732711      1.43066281
H       0.62729338      4.79044807      3.08056393
H      -1.62003348      3.74929910      3.18459878
H      -2.23333808      1.94209278      1.64162677
H      -2.19812190     -0.58683267     -1.80130762
H      -1.43724177     -1.73663511     -0.68982799
