21
CCOC(=O)n1c(=O)[nH]cc(F)c1=O
C       3.57774841      0.84115533      0.44603765
C       2.69737590     -0.34669559      0.11020437
O       1.33089225      0.07812161      0.17460555
C       0.42329333     -0.90104948     -0.11354035
O       0.72647112     -2.05310180     -0.40755062
N      -0.84991695     -0.41347839     -0.10899607
C      -1.68984207     -0.85806924      0.88989365
O      -1.35956755     -1.55504370      1.84713788
N      -2.99769793     -0.42826308      0.80948962
C      -3.46612500      0.39975378     -0.16888666
C      -2.65112250      0.83628385     -1.12590073
F      -3.07316598      1.65440213     -2.10726925
C      -1.22901892      0.41592079     -1.14717192
O      -0.49528305      0.80461872     -2.05410394
H       4.63540767      0.56566846      0.40973162
H       3.34556713      1.22257764      1.44589339
H       3.40161591      1.66225946     -0.25674072
H       2.92700482     -0.70269955     -0.90033813
H       2.86910369     -1.15092101      0.83431589
H      -3.61050714     -0.75455819      1.55115754
H      -4.51223313      0.68311825     -0.12796879
