63
CC(C)(C)CC(C)(C)CC(=O)[O-].CC(C)(C)CC(C)(C)CC(=O)[O-].[Zn+2]
C       1.90005037      1.48793649      0.61959248
C       1.61001408      0.17107524     -0.12468556
C       1.74965542     -1.00129883      0.85163109
C       2.71162584      0.01360195     -1.20337696
C       0.24181098      0.21106875     -0.87801200
C      -1.15074456      0.09175880     -0.16574875
C      -1.27977640      1.03219241      1.03937226
C      -2.20933240      0.53127304     -1.21186147
C      -1.43910518     -1.37543680      0.24204482
C      -2.85979114     -1.68067065      0.73541892
O      -3.63227899     -2.17687935     -0.13252763
O      -3.07482750     -1.42136402      1.95264939
C      -2.36529806      1.48307066      0.37218490
C      -1.50725244      0.19289425      0.32822386
C      -2.01396686     -0.65819131     -0.84112617
C      -1.75836793     -0.55250400      1.65223061
C      -0.01922917      0.64407001      0.18003521
C       1.15127350     -0.32825210     -0.18094068
C       1.12659885     -0.71992419     -1.67218832
C       1.14322241     -1.61463810      0.66047329
C       2.50154303      0.39133054      0.12015871
C       2.75854049      1.70118491     -0.63483984
O       2.41694490      2.75043170     -0.01989594
O       3.30182669      1.57105695     -1.76762503
Zn      0.00000000      0.00000000      0.00000000
H       1.73852149      2.35585082     -0.02915632
H       2.94163416      1.52401544      0.96103470
H       1.28034215      1.61007404      1.51018876
H       2.77739666     -1.08124466      1.22585044
H       1.50539659     -1.95284090      0.36756850
H       1.10949022     -0.87707215      1.72941350
H       3.71246375      0.00840289     -0.75627424
H       2.59395690     -0.92571082     -1.75580113
H       2.67668043      0.83562435     -1.92752664
H       0.23857595      1.15010728     -1.45218079
H       0.26474324     -0.57689159     -1.64605402
H      -0.96293906      2.04884086      0.78257387
H      -0.68676917      0.68392766      1.88957283
H      -2.31731963      1.10433238      1.38436844
H      -2.01783469      1.55191271     -1.56344377
H      -3.22293752      0.52481641     -0.79675641
H      -2.19907547     -0.13022153     -2.08558038
H      -1.23109099     -2.04147562     -0.60631100
H      -0.76853553     -1.69570458      1.04401706
H      -2.26976493      2.05485772     -0.55802430
H      -3.42834171      1.25271759      0.50809531
H      -2.05884170      2.13388601      1.19915521
H      -3.09935539     -0.80270678     -0.78094773
H      -1.56831788     -1.65636240     -0.84184238
H      -1.80202887     -0.17846199     -1.80261050
H      -1.32692582     -1.55512493      1.65846246
H      -1.34545929     -0.00036323      2.50369219
H      -2.83272733     -0.67779462      1.83340708
H       0.24738744      1.14290743      1.12386864
H      -0.00275371      1.44439603     -0.57420032
H       0.33322072     -1.43473311     -1.90165742
H       2.06761962     -1.19927773     -1.96719279
H       0.98201112      0.15299100     -2.31737551
H       1.09875129     -1.38833207      1.73118538
H       2.05270316     -2.20297403      0.48878247
H       0.30327493     -2.26573594      0.40441058
H       2.57287970      0.60287735      1.19628355
H       3.34083327     -0.28329563     -0.10018253
