14
CC(=O)C=CC(=O)O
C      -2.56707248     -0.60468413      0.73974865
C      -1.39174459     -0.09758629     -0.05262727
O      -1.51467801      0.27060386     -1.21848449
C      -0.07035796     -0.08201454      0.62554536
C       1.00788997      0.36328671     -0.03247880
C       2.30324302      0.37166837      0.64931209
O       2.53410920      0.01005980      1.78706756
O       3.25651552      0.84804145     -0.16399208
H      -2.83676149     -1.60289814      0.38583293
H      -3.40984982      0.07961116      0.60796561
H      -2.33632163     -0.65346861      1.80733474
H      -0.01896781     -0.43832469      1.64810708
H       0.96968828      0.72118373     -1.05480616
H       4.07430780      0.81452131      0.37438932
