63
CC(C)(C)c1nc(CCCCCC2CCCCC2)c2c(N)c(C#N)c(N)nc2n1
C      -0.97419181      2.91209536     -0.43808709
C      -2.45840305      2.57094308     -0.20099003
C      -2.97787286      3.35002084      1.01858595
C      -3.25471875      3.00772905     -1.44659674
C      -2.60785335      1.07673070      0.07184502
N      -1.78118353      0.51920131      0.96155844
C      -1.89985076     -0.80705060      1.19891508
C      -0.82555586     -1.33103007      2.12174070
C       0.33394260     -2.01550912      1.38597644
C       1.12622356     -1.04950516      0.49621976
C       2.33579540     -1.73852570     -0.13815209
C       3.06622743     -0.86079943     -1.16160298
C       3.60912304      0.48260258     -0.63419002
C       4.60302433      0.29768603      0.52406264
C       5.20079239      1.62688914      0.98286198
C       5.83990207      2.38952970     -0.17202876
C       4.85581543      2.58903313     -1.31875775
C       4.26682046      1.26119059     -1.78795534
C      -2.88417564     -1.60543442      0.57503754
C      -3.13651141     -3.01241943      0.72573655
N      -2.46409033     -3.75525669      1.73413751
C      -4.19444432     -3.59631246      0.00588353
C      -4.52580884     -4.97951988      0.15766357
N      -4.77477362     -6.09914843      0.33849032
C      -4.92200548     -2.79623979     -0.85977487
N      -5.94953016     -3.28165501     -1.66617763
N      -4.66408249     -1.49078736     -1.01659027
C      -3.69165016     -0.90099846     -0.32624592
N      -3.56273019      0.39390321     -0.56284897
H      -0.56367421      2.33414044     -1.27466422
H      -0.35885795      2.69508521      0.44324536
H      -0.84470166      3.97565428     -0.67004354
H      -2.89189972      4.43167012      0.86322025
H      -2.41496822      3.10094165      1.92600471
H      -4.03270753      3.12356316      1.21589225
H      -3.12287623      4.07780763     -1.64409602
H      -2.92845660      2.46295915     -2.34047908
H      -4.32917451      2.82906343     -1.32274494
H      -1.25357507     -1.99030489      2.88122554
H      -0.41887872     -0.48890834      2.69930688
H       1.00999274     -2.44337132      2.13675368
H      -0.03150099     -2.84960581      0.77639528
H       1.45590455     -0.19700133      1.10042071
H       0.48121086     -0.65859755     -0.29885819
H       3.03066987     -2.06745717      0.64290207
H       2.00161947     -2.64794835     -0.65352174
H       3.89452724     -1.44643083     -1.58058853
H       2.38038592     -0.66157314     -1.99550697
H       2.76595460      1.08561999     -0.27235270
H       4.10819118     -0.17159685      1.38152496
H       5.41240454     -0.37545440      0.21405865
H       4.41372314      2.24293187      1.43551542
H       5.94935220      1.44280253      1.76214814
H       6.19780163      3.36357668      0.18059547
H       6.71631792      1.83822886     -0.53400856
H       5.36167199      3.08428216     -2.15525544
H       4.04577961      3.25446348     -0.99520059
H       3.52764078      1.45501919     -2.57490106
H       5.06194192      0.65473263     -2.24091259
H      -2.85417240     -3.57069419      2.65934543
H      -2.45125793     -4.76446990      1.58093662
H      -6.33621897     -2.49223894     -2.18198070
H      -6.67040351     -3.78425216     -1.15870062
