29
CC(O)CCOCCC(C)O
C      -3.60589573      0.05954873     -0.37089458
C      -3.04260079     -1.32286821     -0.07444433
O      -2.08894695     -1.65416142     -1.08154119
C      -2.41987537     -1.44967729      1.32313563
C      -1.31265162     -0.43994471      1.62621164
O      -0.31845410     -0.50119694      0.60169651
C       0.75129990      0.41506760      0.85146670
C       1.75711706      0.28402247     -0.28757089
C       2.91695519      1.26632500     -0.14203673
C       3.88545582      1.16939630     -1.31308359
O       3.62385573      1.00544386      1.06768376
H      -4.11524065      0.05736414     -1.34098700
H      -4.32200623      0.37083626      0.39535281
H      -2.81272006      0.81076654     -0.44528667
H      -3.85325445     -2.05531029     -0.15804554
H      -1.23898710     -1.25175849     -0.80271421
H      -1.98726749     -2.45505536      1.40516830
H      -3.20113515     -1.36112545      2.08663934
H      -0.85677651     -0.68167301      2.59328819
H      -1.72300619      0.57440086      1.68166587
H       0.35308669      1.43531735      0.89168868
H       1.21904513      0.17243100      1.81208133
H       1.24385964      0.43865812     -1.24480500
H       2.13048279     -0.74818022     -0.30219121
H       2.53196359      2.29015247     -0.08063531
H       4.31913498      0.16578838     -1.38404572
H       4.72096658      1.86410285     -1.17518691
H       3.38888847      1.40351383     -2.25959337
H       4.05670681      0.13781564      0.98069524
