36
O=C1C=CC(=C(c2ccc(O)cc2)c2ccc(O)cc2)C=C1
O      -3.82820745     -4.20199764      0.40698053
C      -3.00588055     -3.29937787      0.31204312
C      -3.41165002     -1.87913401      0.38658099
C      -2.50403260     -0.89842405      0.28149037
C      -1.07135022     -1.17595960      0.08871635
C      -0.15376768     -0.16878431     -0.01720995
C      -0.57690528      1.25697424      0.02864238
C      -0.51499224      1.97215537      1.23298620
C      -0.90870007      3.31174587      1.27900053
C      -1.36124848      3.93141597      0.11817056
O      -1.75600141      5.23628807      0.11770761
C      -1.42529057      3.23687634     -1.08435559
C      -1.03096346      1.89907338     -1.13198505
C       1.29413795     -0.46971479     -0.18136083
C       1.87050364     -0.48429865     -1.45938741
C       3.23022001     -0.76355323     -1.61691544
C       4.00883780     -1.02530839     -0.49372518
O       5.33913365     -1.30328610     -0.60125907
C       3.45292049     -1.01125939      0.78036836
C       2.09508081     -0.73105169      0.93922339
C      -0.67584604     -2.59194269      0.01567339
C      -1.56812871     -3.58687544      0.11836546
H      -4.46655812     -1.68314173      0.53043234
H      -2.85304400      0.12737537      0.34843080
H      -0.16018666      1.48843358      2.13993010
H      -0.85401157      3.84893954      2.22043955
H      -1.63844956      5.59722542      1.01170968
H      -1.77894048      3.73605981     -1.98201367
H      -1.08217288      1.36147174     -2.07545039
H       1.26247023     -0.27853998     -2.33709887
H       3.65850816     -0.77061675     -2.61410876
H       5.59173794     -1.25792341     -1.53799037
H       4.07517245     -1.21561203      1.64702072
H       1.66625521     -0.72035559      1.93810284
H       0.36673611     -2.85644973     -0.13133544
H      -1.28538641     -4.63042763      0.06365429
