47
C=C1C[C@]23C[C@@]1(O)CC[C@H]2[C@@]12C=C[C@H](O)[C@](C)(C(=O)O1)[C@H]2[C@@H]3C(=O)O
C      -4.68366589      1.79595279      0.00000000
C      -3.47039666      0.91392231      0.00000000
C      -2.04367725      1.37703323      0.00000000
C      -1.16235205      0.16325159      0.00000000
C      -2.62948276      0.47554547      0.00000000
C      -3.63350255     -0.63888006      0.00000000
O      -5.10063327     -0.32658618      0.00000000
C      -3.17039163     -2.06559947      0.00000000
C      -1.70326092     -2.37789335      0.00000000
C      -0.69924112     -1.26346782      0.00000000
C       0.80075881     -1.26390371      0.00000000
C       1.06827710     -0.46275792      0.00000000
C       1.85202930     -0.68560257      0.00000000
C       2.04224726      0.26604147      0.00000000
O       4.68832504      0.02703564      0.00000000
C       2.76469877      0.16211042      0.00000000
C       3.64672925      1.37537966      0.00000000
C       3.22780969     -1.26460899      0.00000000
O       4.58707001     -1.89896803      0.00000000
O       2.01402805     -2.14593419      0.00000000
C       1.26469884      0.16254631      0.00000000
C       0.05142960      1.04457679      0.00000000
C       1.05544940      2.15900232      0.00000000
O       0.59233847      3.58572173      0.00000000
O       2.52258011      1.84670843      0.00000000
H      -4.52643971      3.28769001      0.00000000
H      -6.05416131      1.18624605      0.00000000
H      -0.84548603      2.27943991      0.00000000
H      -2.65338399      2.74752865      0.00000000
H      -3.67109854      1.55491406      0.00000000
H      -2.42037154      1.96089812      0.00000000
H      -6.10465306     -1.44101170      0.00000000
H      -3.22317649     -3.56467043      0.00000000
H      -4.65585433     -2.27392747      0.00000000
H      -0.53784179     -3.32224406      0.00000000
H      -2.26557493     -3.76850579      0.00000000
H       0.07297699     -2.54942241      0.00000000
H       0.93318935     -3.94831209      0.00000000
H       3.91684604     -3.63559371      0.00000000
H       4.98235418     -1.73300930      0.00000000
H       6.14366311     -0.33627013      0.00000000
H       4.52875973      2.58864889      0.00000000
H       2.68294374      2.52477841      0.00000000
H       5.03737200      0.81314061      0.00000000
H       2.06001591      1.43434455      0.00000000
H      -0.80854484      2.27357800      0.00000000
H       3.52659990      2.96113396      0.00000000
