22
COc1ccc(S(=O)(=O)O)cc1N
C      -3.48043335     -0.16794404      0.81227697
O      -2.61703587      0.16065621     -0.26826789
C      -1.27006855     -0.03441421     -0.07240191
C      -0.70580735     -0.67917534      1.03399027
C       0.68053737     -0.81935285      1.13217814
C       1.49660671     -0.30794164      0.12191626
S       3.25487203     -0.42205091      0.27290113
O       3.58602713     -0.40746878      1.68194344
O       3.70229689     -1.47227283     -0.61221864
O       3.80870926      0.98367387     -0.29354734
C       0.94822626      0.33765431     -0.98762405
C      -0.43878704      0.44010542     -1.11210066
N      -0.98186010      1.19829133     -2.16810855
H      -4.49686234      0.11999206      0.52694294
H      -3.48114553     -1.24663031      0.99943149
H      -3.21759385      0.39155927      1.71624030
H      -1.31680605     -1.07976351      1.83612487
H       1.11284888     -1.31556447      1.99879039
H       4.27080830      1.43491713      0.44443991
H       1.59615759      0.75973229     -1.75179207
H      -0.47208982      1.11733079     -3.04101429
H      -1.97860058      1.00866622     -2.27010069
