30
C[Si]1O[Si](C)O[Si](C)O[Si](C)O[Si](C)O1
C       1.86590383      3.86702074     -0.18667870
Si      1.27250361      2.16550755      0.20856803
O      -0.37758961      2.04043515      0.26778732
Si     -1.66064718      1.74961476     -0.74038342
C      -2.76363252      3.20958771     -0.96533581
O      -2.46211132      0.37911522     -0.26586967
Si     -2.12247653     -1.17371156      0.20121211
C      -3.62291938     -2.18395743      0.55725796
O      -1.08837533     -1.88657534     -0.88069833
Si      0.38928322     -2.63217159     -0.91048532
C       0.37660477     -4.32878366     -0.18703909
O       1.55372793     -1.65018723     -0.26030237
Si      2.63262941     -0.48233206     -0.71937389
C       4.20409749     -0.51022204      0.24406086
O       1.91018538      1.00444991     -0.78595175
H       1.47040153      4.59902249      0.52411370
H       2.95810855      3.92343845     -0.14885730
H       1.55168496      4.17357733     -1.18913706
H      -3.56338177      2.99528019     -1.68081886
H      -2.20559704      4.07313595     -1.34003418
H      -3.23239876      3.50154978     -0.02061162
H      -4.24870094     -1.70895471      1.31900112
H      -4.23447662     -2.31516804     -0.34073004
H      -3.35238108     -3.17919891      0.92321170
H      -0.36655727     -4.96335068     -0.67951311
H       1.35190128     -4.81274283     -0.29705156
H       0.13716256     -4.30361944      0.88050253
H       4.68994934     -1.48868280      0.17926619
H       4.02559253     -0.29859339      1.30281291
H       4.91150897      0.23651645     -0.12943861
