32
CC(C)(C)C(=O)OCn1cc2c(=O)[nH]cnc2n1
C      -2.98149698      1.30312776     -0.41012474
C      -3.10759700     -0.18372681     -0.05291881
C      -2.91396328     -1.05265361     -1.30268388
C      -4.50729517     -0.44383710      0.52577630
C      -2.04860842     -0.54689983      0.99032103
O      -2.28582196     -0.96111298      2.11710947
O      -0.79492253     -0.34055055      0.50760996
C       0.22506234     -0.69968782      1.44075671
N       1.51282526     -0.37365851      0.84100293
C       1.97644529      0.88627982      0.54471871
C       3.22545978      0.69482118      0.00476992
C       4.21764142      1.58499160     -0.50567374
O       4.11279738      2.80409222     -0.55309301
N       5.33031143      0.90820897     -0.94749192
C       5.45208405     -0.46416228     -0.89295688
N       4.57806869     -1.30363168     -0.43854449
C       3.41926228     -0.68517727      0.02564450
N       2.39423472     -1.35723432      0.53454990
H      -3.06557141      1.93138621      0.48412664
H      -2.01355101      1.52638515     -0.87302337
H      -3.76319301      1.60971899     -1.11402303
H      -2.94602875     -2.11869757     -1.04975762
H      -1.94672786     -0.86200784     -1.78131817
H      -3.69458856     -0.85747945     -2.04637860
H      -5.29031643     -0.19386490     -0.19886985
H      -4.68232851      0.15515573      1.42705421
H      -4.63265850     -1.49673145      0.80403328
H       0.20490742     -1.77538695      1.64708346
H       0.14698604     -0.11541616      2.36447634
H       1.38958798      1.77482716      0.73177299
H       6.07451600      1.47751056     -1.32226250
H       6.41447930     -0.82458824     -1.29139290
