27
CCCCOC(=O)c1ccccc1
C       4.11066565     -0.42379844      1.36563049
C       2.88088994     -0.61776455      0.49247923
C       2.67837483      0.56441906     -0.45819275
C       1.46761614      0.37241687     -1.36762374
O       0.28291044      0.31992896     -0.56287184
C      -0.86192639      0.13445878     -1.26596138
O      -0.94395460      0.02220367     -2.47899795
C      -2.03549684      0.08354107     -0.35198750
C      -3.30654783     -0.09162298     -0.91668328
C      -4.43859885     -0.14655504     -0.10110335
C      -4.30761349     -0.02722045      1.28176108
C      -3.04691641      0.14690643      1.85202699
C      -1.91172007      0.20242966      1.03942234
H       4.23803693     -1.27935770      2.03624226
H       5.01493042     -0.33309337      0.75538700
H       4.01772156      0.47800756      1.97917355
H       2.99219208     -1.54320430     -0.08441517
H       2.00288120     -0.74074947      1.13681702
H       2.54353673      1.47704510      0.13512727
H       3.57310702      0.69880038     -1.07697291
H       1.39690333      1.22030906     -2.05881331
H       1.56937568     -0.55615194     -1.94167996
H      -3.41926737     -0.18601260     -1.99524206
H      -5.42150251     -0.28250849     -0.54560174
H      -5.18969229     -0.07015608      1.91626360
H      -2.94714759      0.23950017      2.93083999
H      -0.93875768      0.33822866      1.50499261
