15
NS(=O)(=O)[O-].NS(=O)(=O)[O-].[Ca+2]
N       0.97266794      0.02181995     -0.31295974
S      -0.68131012     -0.06507600     -0.04399395
O      -0.90291616      1.27425540      0.47433644
O      -1.21326522     -0.35838223     -1.36021337
O      -0.70164204     -1.14198276      0.93142529
N       0.94598507     -0.06309799      0.38161971
S      -0.68525503      0.02790399     -0.00088682
O      -0.79201176     -1.15050625     -0.84441286
O      -1.33052614     -0.02965707      1.29593616
O      -0.69203664      1.30965427     -0.68547014
Ca      0.00000000      0.00000000      0.00000000
H       1.33224267     -0.69376190      0.31242295
H       1.19422293      0.96312754     -0.00101762
H       1.24264478     -0.89065263     -0.12789094
H       1.31119973      0.79635568     -0.01889512
