30
CCCCC(O)CCCC
C       4.24268503     -1.54555861     -0.42337073
C       3.57214404     -0.18240876     -0.36056609
C       2.13556689     -0.28757173      0.15385223
C       1.46620051      1.08633558      0.21005741
C       0.06625753      1.06698853      0.83880754
O      -0.38805265      2.41716007      0.94785328
C      -0.95599437      0.27726945      0.01156459
C      -2.34980623      0.28338080      0.65171113
C      -3.33867158     -0.54867065     -0.16564360
C      -4.72238563     -0.54689336      0.46436528
H       4.28152737     -2.00960159      0.56732717
H       3.70224037     -2.21803361     -1.09718738
H       5.26822344     -1.44680626     -0.79272910
H       3.57747049      0.26766036     -1.36014186
H       4.15578707      0.47467899      0.29464413
H       2.13632290     -0.73743829      1.15394210
H       1.57009955     -0.95620865     -0.50433164
H       2.09906050      1.77422076      0.78630790
H       1.41023217      1.51805881     -0.79774456
H       0.11871135      0.65357933      1.85286680
H       0.23619880      2.89164608      1.52292784
H      -0.62631238     -0.76065810     -0.10450370
H      -1.03116603      0.71535603     -0.99169743
H      -2.28620839     -0.11873220      1.67015660
H      -2.72168223      1.31166085      0.73200822
H      -3.40691435     -0.15061993     -1.18475125
H      -2.98101224     -1.58193798     -0.24388986
H      -4.69422533     -0.96881980      1.47407590
H      -5.12345352      0.46971420      0.52749619
H      -5.41284306     -1.14775032     -0.13575734
