22
Clc1cccc(-c2ccccc2)c1Cl
Cl      3.91130462     -2.50301492      0.17457714
C       2.89823465     -1.09970598      0.14322249
C       3.53272688      0.14401911      0.21667063
C       2.78035092      1.31470821      0.19757303
C       1.39085069      1.24367570      0.10419608
C       0.72660381      0.00402015      0.02780719
C      -0.74008558      0.00228030     -0.07076966
C      -1.53512064      0.09542201      1.08202074
C      -2.92857047      0.10435543      0.98828120
C      -3.54417509      0.02275649     -0.25900069
C      -2.76862378     -0.06793705     -1.41295523
C      -1.37515670     -0.07684922     -1.31981498
C       1.49842016     -1.17854695      0.04915454
Cl      0.71203893     -2.72765219     -0.03445969
H       4.61620929      0.20519111      0.28942595
H       3.27364475      2.28231417      0.25456947
H       0.81415978      2.16828875      0.08821803
H      -1.06995944      0.15539780      2.06375557
H      -3.53259102      0.17138779      1.88938640
H      -4.62867313      0.02635768     -0.33158294
H      -3.24761471     -0.13521890     -2.38628984
H      -0.78397391     -0.15124950     -2.23019482
