51
O=S(=O)(NCC(c1ccccc1)N1CCCCCC1)c1ccc(Cl)cc1Cl
O       2.12254347      0.87229197      3.10872857
S       2.34341676      1.26744724      1.73598047
O       2.51430506      2.64571410      1.33444748
N       1.02685009      0.67319056      0.88656597
C       0.67238200      1.30211467     -0.40517976
C      -0.60885684      0.63997461     -1.01670653
C      -0.17701640     -0.72140734     -1.58588080
C       0.24248432     -0.81531451     -2.92346593
C       0.67235368     -2.03496883     -3.45014936
C       0.69022185     -3.17525920     -2.64959076
C       0.27808933     -3.09924411     -1.32137977
C      -0.15022170     -1.88110824     -0.79185462
N      -1.78469200      0.54137842     -0.07850638
C      -2.07736813      1.84158555      0.55941266
C      -3.19987949      1.84479298      1.60635030
C      -4.59524505      1.74821859      1.00639812
C      -5.04716525      0.32840652      0.69621927
C      -3.98399748     -0.61589513      0.14878372
C      -2.97061479      0.02267388     -0.80189826
C       3.72741703      0.33353021      1.14661350
C       3.52833213     -0.76322895      0.29508582
C       4.62116889     -1.48922660     -0.18257531
C       5.91011794     -1.12433209      0.19485768
Cl      7.25637707     -2.01797249     -0.39396654
C       6.11600797     -0.04360029      1.04991438
C       5.02409406      0.68907697      1.53197858
Cl      5.38060751      1.99104518      2.60886126
H       0.23857688      0.41005244      1.48301002
H       0.47999422      2.36942109     -0.25097894
H       1.51908460      1.21943148     -1.09659304
H      -0.91718438      1.27091630     -1.86325715
H       0.23794973      0.06184886     -3.56686314
H       0.99149869     -2.09640972     -4.48762841
H       1.02081041     -4.12485878     -3.06250727
H       0.28648483     -3.98854984     -0.69633496
H      -0.46985490     -1.83796428      0.24760561
H      -1.19493201      2.18247324      1.10949406
H      -2.28180840      2.60429961     -0.20359374
H      -3.03564828      1.06203713      2.35668776
H      -3.13655216      2.79993371      2.14433315
H      -4.65389964      2.36267159      0.09945743
H      -5.31689100      2.18465831      1.70848017
H      -5.87863420      0.38526923     -0.01788736
H      -5.46803844     -0.12268912      1.60392516
H      -4.50021018     -1.42986758     -0.37710513
H      -3.45807709     -1.10169530      0.98150001
H      -2.67945311     -0.77982383     -1.48795388
H      -3.43053805      0.79290876     -1.43411245
H       2.53161346     -1.07391326     -0.00359199
H       4.45655511     -2.33661838     -0.84445213
H       7.12744188      0.22658469      1.34499400
