22
ClC1=C(Cl)C2(Cl)C3CC=CC3C1(Cl)C2(Cl)Cl
Cl     -2.37462455      2.33263748     -0.16404537
C      -1.60963275      0.82471628     -0.07642877
C      -1.38458399     -0.04404196     -1.06934546
Cl     -1.81469063      0.10807974     -2.70023455
C      -0.61549954     -1.21398844     -0.48346639
Cl     -0.64991357     -2.70791694     -1.40528498
C       0.83229828     -0.74559554     -0.12506631
C       1.64876358     -0.02613517     -1.20446684
C       1.77504094      1.36931264     -0.68296944
C       1.20018396      1.54490745      0.51160490
C       0.56951069      0.28910796      1.02432673
C      -0.98916389      0.24435699      1.18028397
Cl     -1.56100361      0.89408818      2.70805679
C      -1.28862399     -1.26850050      0.92952506
Cl     -0.50889936     -2.39467980      2.09921113
Cl     -3.04351541     -1.70258452      0.91625838
H       1.42275151     -1.58842532      0.25882723
H       1.18059144     -0.04988024     -2.19134457
H       2.64440174     -0.47412819     -1.29485008
H       2.29212298      2.15101993     -1.22689000
H       1.19354750      2.48320219      1.05392922
H       1.08093866     -0.02555220      1.94236935
