41
CCOC(=O)[C@@H](C)Oc1ccc(Oc2nc3ccc(Cl)cc3o2)cc1
C       7.47932437     -0.60891583     -1.64856069
C       6.79040812      0.01347929     -0.44983167
O       5.40295940     -0.34178219     -0.49803599
C       4.66147670      0.15212673      0.54124216
O       5.11545854      0.84836591      1.43995958
C       3.19865207     -0.27653196      0.38324831
C       3.10043818     -1.79154466      0.53169285
O       2.43003798      0.35016062      1.41228061
C       1.12427675      0.66646430      1.16901829
C       0.53419972      1.46980273      2.14856657
C      -0.80006479      1.86667435      2.03746180
C      -1.56358523      1.44469804      0.95034728
O      -2.85347538      1.90839581      0.89011609
C      -3.85456201      1.13579174      0.48595880
N      -3.85504788     -0.15202970      0.20743238
C      -5.16208401     -0.39661022     -0.12279850
C      -5.80659117     -1.57669745     -0.51564143
C      -7.18139164     -1.51625707     -0.79432854
C      -7.88621375     -0.31057724     -0.68199570
Cl     -9.57293285     -0.28927045     -1.03581117
C      -7.26183877      0.87791630     -0.29086006
C      -5.90244493      0.77265661     -0.02528702
O      -5.05872255      1.76884400      0.37210289
C      -0.97719894      0.65426939     -0.03902486
C       0.36115263      0.25728651      0.07558868
H       7.02824794     -0.25236548     -2.58049906
H       8.54534065     -0.36516619     -1.65607837
H       7.36541200     -1.69794999     -1.63604836
H       7.23857180     -0.36922131      0.47393517
H       6.89424410      1.10358240     -0.48825105
H       2.88994107      0.06793874     -0.61077649
H       3.49077335     -2.11109135      1.50493317
H       2.06166712     -2.13193099      0.48240441
H       3.66890949     -2.31020763     -0.24664889
H       1.12252631      1.79444255      3.00408104
H      -1.23950746      2.49971996      2.80351731
H      -5.25464211     -2.50669355     -0.59879969
H      -7.69925165     -2.42319243     -1.10039813
H      -7.79064702      1.81758575     -0.19793880
H      -1.54845738      0.33581201     -0.90702708
H       0.76464123     -0.37797803     -0.70504665
