17
CC(=O)C1CCOC1=O
C      -2.08905921     -1.16991776     -0.53417132
C      -1.25167856      0.02878951     -0.16636338
O      -1.74332624      0.97660032      0.44799836
C       0.20315693      0.01043228     -0.57839128
C       0.96342119      1.26972557     -0.21179193
C       1.51088891      0.93775364      1.15266370
O       1.76771847     -0.46607918      1.11378654
C       0.97475137     -1.03579088      0.16088896
O       0.89472223     -2.23793875     -0.03560050
H      -1.84515228     -2.00890886      0.12099321
H      -3.14857329     -0.92393180     -0.41922899
H      -1.91093124     -1.44014880     -1.57807717
H       0.26758937     -0.15316685     -1.65869233
H       1.79746384      1.40309638     -0.91273277
H       0.37472981      2.19118635     -0.21762378
H       0.79432725      1.14229357      1.95517292
H       2.43995146      1.47600525      1.36116976
