33
CCC(=O)OCn1cnc2c1c(=O)n(C)c(=O)n2C
C       5.38693634      1.02593699     -0.00905045
C       4.02051811      0.57423761     -0.49338486
C       3.29355821     -0.24331154      0.54608126
O       3.73323923     -0.56319007      1.64085580
O       2.06549424     -0.59136655      0.07653341
C       1.28870340     -1.28740399      1.04643419
N      -0.02669657     -1.50314075      0.47563089
C      -0.52822480     -2.70223861      0.04049960
N      -1.75713969     -2.57692124     -0.42013096
C      -2.03918132     -1.25173288     -0.27923021
C      -0.99972970     -0.56574538      0.27058130
C      -1.03460075      0.83164208      0.52496301
O      -0.09804801      1.43663931      1.03770210
N      -2.24154409      1.42107658      0.13805049
C      -2.40287479      2.84686941      0.34611084
C      -3.34534310      0.74422893     -0.42291350
O      -4.38048478      1.35103850     -0.71368522
N      -3.21272591     -0.62958486     -0.62932623
C      -4.29970645     -1.39871739     -1.20723206
H       6.02314643      0.16723631      0.22988355
H       5.88803037      1.61898484     -0.78022261
H       5.30087392      1.63994469      0.89362451
H       4.13683915     -0.03592021     -1.39516381
H       3.41195890      1.45330115     -0.73060665
H       1.73097117     -2.26574316      1.26538685
H       1.16351614     -0.70738727      1.96759923
H       0.03622408     -3.62578571      0.07994227
H      -2.67096377      3.32037112     -0.60411025
H      -1.49710699      3.32014342      0.73309979
H      -3.22045426      3.00933629      1.05610866
H      -4.60735578     -2.17212181     -0.49631868
H      -3.95245148     -1.86841470     -2.13298448
H      -5.16537745     -0.77226113     -1.43755075
