32
CC(C)N(C(=O)SC/C(Cl)=C/Cl)C(C)C
C      -0.66619217      1.96541119     -0.98202873
C      -1.41433747      0.62820648     -0.94417494
C      -1.99973174      0.26916129     -2.31152410
N      -0.60317644     -0.47164268     -0.37033178
C       0.60458962     -0.79172735     -1.00318254
O       0.97552147     -0.29620974     -2.06156353
S       1.66157845     -1.95261433     -0.21251723
C       3.25671013     -1.15219679     -0.54929839
C       3.39074892      0.15508085      0.18343511
Cl      3.72935031      0.02187907      1.88125869
C       3.30318460      1.34071058     -0.43285234
Cl      3.45398504      2.87679132      0.31150686
C      -1.06678380     -1.06972880      0.91024999
C      -2.50498710     -1.59370664      0.83441103
C      -0.88404337     -0.09334074      2.07346833
H       0.14093563      1.97530960     -1.71975133
H      -0.22904292      2.19465811     -0.00446861
H      -1.35318696      2.77795327     -1.24259004
H      -2.26752831      0.79362735     -0.27874812
H      -2.70471710      1.04027141     -2.64039649
H      -1.23101355      0.17681916     -3.08401543
H      -2.53957093     -0.68251679     -2.26393785
H       4.05411827     -1.83643259     -0.23741540
H       3.38074689     -1.02206882     -1.63036282
H       3.10186067      1.44050434     -1.49345900
H      -0.46407844     -1.94881045      1.14451173
H      -2.62833820     -2.25955504     -0.02634046
H      -3.24312231     -0.79113911      0.74842882
H      -2.75031862     -2.16254158      1.73806844
H      -1.14163397     -0.57174210      3.02424678
H       0.15530852      0.24639646      2.13597403
H      -1.51683511      0.79319308      1.96335228
