21
c1ccc(OCC2CO2)cc1
C      -3.47964094      0.22076642     -0.48059302
C      -2.72732743     -0.95244669     -0.49962283
C      -1.35949541     -0.91832898     -0.20924360
C      -0.73939335      0.29288660      0.10154148
O       0.58304582      0.46793207      0.40365272
C       1.40899503     -0.69579914      0.39760654
C       2.79437020     -0.27767814      0.76752152
C       3.77437026      0.18838991     -0.27493812
O       3.83352954     -1.13572887      0.27941045
C      -1.50080323      1.46485582      0.11864656
C      -2.86589162      1.43167209     -0.17097417
H      -4.54230075      0.19069922     -0.70665478
H      -3.20594668     -1.89825461     -0.74122236
H      -0.81211331     -1.85446699     -0.23534195
H       1.40252616     -1.15732086     -0.59754981
H       1.05245142     -1.41669506      1.14264374
H       2.87482984      0.10522311      1.77537692
H       4.54334676      0.88992141      0.02286896
H       3.43776346      0.29203615     -1.29888217
H      -1.02558991      2.41244383      0.36001223
H      -3.44672584      2.34989271     -0.15425830
