28
COC(=O)C(N)Cc1ccc(O)c(O)c1
C       2.40707457      1.82295532      1.02368601
O       1.87232087      0.92856582      0.04818727
C       2.25228924     -0.36800520      0.21364596
O       3.03077521     -0.77305105      1.07050827
C       1.57717071     -1.27050449     -0.82971599
N       2.49466986     -2.39036150     -1.17942333
C       0.26564832     -1.83894744     -0.26576181
C      -0.82544514     -0.80236120     -0.12032664
C      -1.54315250     -0.36360330     -1.24685537
C      -2.53947257      0.61014650     -1.12577708
C      -2.81378293      1.14613057      0.12588613
O      -3.77393378      2.10273261      0.30870904
C      -2.10632418      0.71666387      1.24511180
O      -2.38001860      1.25272039      2.47110717
C      -1.11864965     -0.25215285      1.13569764
H       3.49853216      1.85820783      0.95204410
H       2.01340456      2.82234381      0.81895316
H       2.09295736      1.52695557      2.02958217
H       1.40678784     -0.69341698     -1.74561927
H       2.76645897     -2.84998695     -0.30448754
H       3.36699591     -1.99168780     -1.53117165
H       0.44338703     -2.31913470      0.70620371
H      -0.11354796     -2.63274648     -0.92396137
H      -1.32790795     -0.78307439     -2.22817901
H      -3.07980884      0.93092994     -2.01031341
H      -4.18237038      2.28725313     -0.55448726
H      -3.10148045      1.89071328      2.30128720
H      -0.58257767     -0.56728431      2.02698345
