20
Cc1cc(C)c(C)cn1
C       3.21985764      0.16339842      0.13671705
C       1.73428285      0.31201896      0.00148378
C       0.89506679     -0.75893098      0.29708849
C      -0.49096687     -0.60717627      0.16669809
C      -1.39954606     -1.76043990      0.48473931
C      -0.99398820      0.63050954     -0.26154129
C      -2.46125638      0.88553347     -0.42996811
C      -0.07366881      1.63988202     -0.53254413
N       1.26626928      1.50966810     -0.41180536
H       3.58241923     -0.62889230     -0.52554008
H       3.73103441      1.09325787     -0.13274137
H       3.48269788     -0.08267165      1.17021804
H       1.32062540     -1.70243347      0.62601987
H      -1.98049113     -2.04203119     -0.39918667
H      -0.83324515     -2.64254636      0.80212683
H      -2.08033331     -1.49486623      1.29967229
H      -2.88327081      0.20423819     -1.17552744
H      -2.65520390      1.90822311     -0.77075101
H      -2.98314947      0.75120973      0.52276623
H      -0.39713338      2.62204895     -0.86792454
