6
O=[Si]([O-])O.[K+]
O      -1.39500045     -1.27212033      0.22912225
Si     -0.51024996     -0.07454721     -0.30506652
O      -1.08010149      1.53880543      0.05455489
O       1.21382331     -0.34108548     -0.32977027
K       0.00000000      0.00000000      0.00000000
H       1.77152859      0.14894758      0.35115966
