59
CN(C)c1ccc([C+](c2ccc(N(C)C)cc2)c2ccc(N(C)C)cc2)cc1.[Cl-]
C       6.39233945     -1.88106319      0.16735075
N       5.21383515     -2.56583369     -0.36035130
C       5.45671989     -3.46117720     -1.49014067
C       3.96212558     -1.94845211     -0.24313487
C       3.73935433     -0.86679749      0.62704980
C       2.48328268     -0.25417390      0.76019487
C       1.38675330     -0.71119256      0.02926549
C       0.04165946     -0.05979458      0.16805999
C      -1.19337793     -0.90362081      0.29143396
C      -2.34513000     -0.59884777     -0.43380628
C      -3.49718433     -1.39255646     -0.31687366
C      -3.55794548     -2.51258092      0.53082009
N      -4.70407451     -3.31124427      0.63108675
C      -5.96952770     -2.80381692      0.10458772
C      -4.81457884     -4.25026746      1.74628244
C      -2.37802968     -2.80572467      1.23711056
C      -1.22034379     -2.01915088      1.12818539
C      -0.06858248      1.43675480      0.18324368
C       0.63637921      2.21756698     -0.73234839
C       0.53100477      3.61728670     -0.71150729
C      -0.28496921      4.29802937      0.20892116
N      -0.37486457      5.69557362      0.23662337
C      -1.47679951      6.31554253      0.97051397
C       0.13781899      6.46148080     -0.89781055
C      -0.97000920      3.48698363      1.13105487
C      -0.87232847      2.08667768      1.11975963
C       1.57517250     -1.79419241     -0.82914185
C       2.83597605     -2.39894695     -0.95422530
Cl      0.00000000      0.00000000      0.00000000
H       7.30166812     -2.46990967      0.00143163
H       6.31898001     -1.74383276      1.25144346
H       6.53483126     -0.90975126     -0.31902970
H       4.79192430     -4.33108368     -1.45731266
H       6.47605362     -3.86296378     -1.46680713
H       5.33084235     -2.93605713     -2.44350466
H       4.54174240     -0.46465437      1.23766647
H       2.37684093      0.57824805      1.45237730
H      -2.36195271      0.25332189     -1.10955388
H      -4.34988143     -1.10135908     -0.92204403
H      -5.91081415     -2.63631033     -0.97642714
H      -6.77918212     -3.52751140      0.25134180
H      -6.26160855     -1.87488193      0.60700026
H      -5.76502472     -4.79497396      1.71459796
H      -4.03084463     -5.01398601      1.70029045
H      -4.76579477     -3.72786382      2.70824353
H      -2.31954990     -3.66529416      1.89749737
H      -0.34280527     -2.29464890      1.70905710
H       1.27861112      1.75092011     -1.47567978
H       1.11753909      4.15794641     -1.44741027
H      -1.44758050      7.40765075      0.88453816
H      -1.41121099      6.09814674      2.04184377
H      -2.44604809      5.98081033      0.58469123
H      -0.38945573      6.19851949     -1.82154515
H       1.21385836      6.30434486     -1.02919628
H       0.01073849      7.53844203     -0.73928265
H      -1.60031076      3.92328777      1.89990524
H      -1.42517700      1.51588381      1.86269707
H       0.74615080     -2.18471512     -1.41526238
H       2.90278484     -3.24418672     -1.63199613
