20
O=C1NC(=O)C2=C1CCCC2
O       2.31673222     -2.10043510     -1.03087799
C       1.97371066     -1.02565999     -0.58002572
N       2.76134519      0.02098566     -0.24040661
C       2.02854960      1.05607668      0.23158249
O       2.42806775      2.13649542      0.61778651
C       0.63053836      0.62585484      0.19165143
C       0.59730260     -0.61652338     -0.29854885
C      -0.62905453     -1.42449830     -0.48973488
C      -1.82302026     -0.77897277      0.23687596
C      -1.84806825      0.75107255      0.08273543
C      -0.55637854      1.41548927      0.59294045
H       3.76307048      0.02859860     -0.32761857
H      -0.48571956     -2.44393875     -0.11530171
H      -0.84743171     -1.49501763     -1.56171190
H      -2.75719569     -1.20730331     -0.14391547
H      -1.77349027     -1.02673110      1.30528173
H      -1.98765129      0.99814659     -0.97783032
H      -2.70874150      1.16576248      0.61978966
H      -0.58726753      1.48411533      1.68661900
H      -0.49529772      2.43648288      0.20070936
