33
N#Cc1ccc(C(c2ccc(C#N)cc2)n2cncn2)cc1
N       6.50714730     -0.26648915     -0.48939265
C       5.37562815     -0.08616331     -0.30536675
C       3.97648628      0.13024161     -0.08015542
C       3.34285371     -0.45383517      1.01797460
C       1.97834314     -0.24084966      1.23511878
C       1.21755892      0.56052979      0.36003418
C      -0.27807228      0.73583008      0.64888678
C      -1.13240126     -0.51122797      0.40281625
C      -2.27445095     -0.72694817      1.19623685
C      -3.09115113     -1.84237298      0.98903644
C      -2.78385483     -2.75996659     -0.01829276
C      -3.61948239     -3.90559312     -0.23008864
N      -4.29410854     -4.83406908     -0.40141455
C      -1.65797669     -2.55353279     -0.81975450
C      -0.84074850     -1.43723600     -0.61430716
N      -0.86684701      1.91993605      0.00686557
C      -1.48116233      2.02141219     -1.20692838
N      -1.85747456      3.26246526     -1.41097189
C      -1.46416053      3.89594870     -0.26849014
N      -0.85753540      3.12014671      0.63283678
C       1.87074566      1.13847893     -0.74232226
C       3.23737161      0.92597778     -0.95842659
H       3.90441337     -1.07630618      1.71285764
H       1.50847526     -0.70912068      2.09992113
H      -0.34288031      0.95755218      1.72581055
H      -2.54166756     -0.02162994      1.98356701
H      -3.96874981     -1.98651819      1.61773397
H      -1.40840266     -3.25981445     -1.61054199
H       0.02618333     -1.30735388     -1.26065376
H      -1.62045436      1.19218340     -1.88638445
H      -1.62445013      4.95162823     -0.08889724
H       1.34151407      1.77405153     -1.44993987
H       3.71931042      1.39264488     -1.81664606
