33
COc1ccc(O)c(C(=O)C=Cc2ccccc2)c1
C      -3.51439880      1.80380897      1.57064539
O      -4.27494552      1.14112662      0.56874690
C      -3.63089694      0.20783196     -0.19587112
C      -4.44040128     -0.41822045     -1.14717972
C      -3.92116133     -1.40528972     -1.98341389
C      -2.58191404     -1.76404348     -1.87601855
O      -2.15405388     -2.75754616     -2.71619428
C      -1.74265530     -1.12544311     -0.94979486
C      -0.30974350     -1.52100308     -0.88289111
O       0.02534450     -2.62535314     -1.30764030
C       0.68487341     -0.54773196     -0.35748175
C       1.93774532     -0.95672620     -0.10526910
C       3.00237804     -0.06954503      0.38032320
C       2.77448585      0.90993377      1.35613476
C       3.82142751      1.71656619      1.81021941
C       5.10691038      1.54518137      1.30090246
C       5.34850763      0.56367115      0.34233792
C       4.30245199     -0.24355844     -0.11121583
C      -2.28303426     -0.14939943     -0.09444610
H      -2.69490295      2.37912411      1.12744223
H      -4.17699358      2.50795000      2.08297642
H      -3.14140622      1.09395200      2.31625668
H      -5.48939895     -0.14253439     -1.23001734
H      -4.56041491     -1.89843004     -2.71076704
H      -1.25287835     -3.02961530     -2.42954325
H       0.38860000      0.48498248     -0.23028420
H       2.22780305     -1.99121817     -0.28395473
H       1.78593510      1.04854446      1.78530191
H       3.63474658      2.47417890      2.56695453
H       5.92151441      2.17156276      1.65527789
H       6.35162887      0.42349473     -0.05224351
H       4.51141228     -1.00543593     -0.85948834
H      -1.65656508      0.30987148      0.66019531
