52
O=C(NCc1ccc(F)c(OC(F)(F)F)c1)C1c2ccccc2C(=O)N1CCc1ncc(F)cn1
O       0.16542359     -1.49513311     -2.31863425
C      -0.03348678     -1.40328859     -1.10814931
N       0.93776301     -1.67441342     -0.16462750
C       2.32609713     -1.83858588     -0.51574019
C       3.05214295     -0.52195346     -0.40123698
C       3.05666102      0.37836740     -1.47414879
C       3.69592927      1.61067468     -1.35231065
C       4.32753675      1.95460360     -0.15883943
F       4.92371103      3.15179825     -0.09887945
C       4.33065486      1.08221771      0.93034590
O       4.89771729      1.28178977      2.15620840
C       5.57876462      2.50402172      2.39139548
F       6.05695965      2.47754358      3.65779767
F       6.63068893      2.64709770      1.56047041
F       4.74267046      3.55702626      2.29272123
C       3.68490202     -0.15485824      0.79776404
C      -1.42683963     -1.09115163     -0.52587657
C      -2.25536110     -2.33350767     -0.36242859
C      -2.65722098     -3.26176037     -1.30883228
C      -3.44085255     -4.34111688     -0.88506140
C      -3.81540211     -4.47891230      0.46451478
C      -3.41148124     -3.53850896      1.41324605
C      -2.63505184     -2.48429212      0.97097834
C      -2.09120189     -1.35961908      1.73886519
O      -2.27446786     -1.16499378      2.92434405
N      -1.36440453     -0.57972603      0.85400422
C      -0.89375104      0.76258769      1.18213740
C      -1.98351291      1.83493763      1.15523872
C      -2.32704336      2.25278183     -0.24633321
N      -3.53475940      1.89919279     -0.73408316
C      -3.80867116      2.28177672     -2.00144836
C      -2.92564886      2.98150039     -2.78429834
F      -3.22267606      3.34456859     -4.03608930
C      -1.71834794      3.28389822     -2.20676135
N      -1.38994596      2.93021280     -0.94373585
H       0.70250059     -1.48281870      0.80311900
H       2.42302135     -2.24240262     -1.52972780
H       2.75661506     -2.57430363      0.17223349
H       2.55447033      0.12328707     -2.40682777
H       3.70316406      2.31165607     -2.18184081
H       3.67613756     -0.83980952      1.64461398
H      -1.93941888     -0.36212664     -1.15753342
H      -2.37110051     -3.16310941     -2.35270480
H      -3.76718634     -5.08541110     -1.60916014
H      -4.42771670     -5.32502605      0.76895261
H      -3.69562296     -3.62421274      2.45676553
H      -0.05036554      1.01106149      0.52878662
H      -0.50555797      0.71004844      2.20671515
H      -2.88455123      1.49075589      1.67584555
H      -1.62493904      2.72417059      1.68752789
H      -4.78572285      2.00022575     -2.37927060
H      -0.96122234      3.83323931     -2.75599511
