43
CCCCOC(=O)CSCSCC(=O)OCCCC
C       7.73708315      1.85782902      0.54887675
C       6.43100471      1.08004722      0.50839320
C       6.60786806     -0.27367541     -0.18331789
C       5.31469805     -1.08430254     -0.20316887
O       4.33664608     -0.38706232     -0.98621830
C       3.11951462     -1.00656057     -1.05018831
O       2.85687676     -2.07001788     -0.50603648
C       2.18566963     -0.16397071     -1.89532713
S       0.49579498     -0.84155278     -2.01311042
C      -0.04212185     -0.66152066     -0.28505927
S      -0.39413850      1.07221340      0.13637469
C      -1.98283380      1.29647590     -0.73229415
C      -3.11443320      0.47430569     -0.14857984
O      -3.05071620     -0.27772445      0.81376624
O      -4.24850181      0.70819879     -0.87634045
C      -5.42336057     -0.00528978     -0.45372161
C      -6.13754947      0.77611756      0.64591757
C      -7.47341366      0.16205911      1.06112829
C      -7.33160220     -1.19798259      1.72681479
H       8.10913477      2.05246398     -0.46207298
H       7.58941091      2.82072212      1.04783388
H       8.50607762      1.30522113      1.09805442
H       5.67678210      1.67786758     -0.01590455
H       6.07085831      0.92929179      1.53271210
H       6.94450158     -0.10430856     -1.21338601
H       7.38476155     -0.85196588      0.33004785
H       4.94225042     -1.22644834      0.81818820
H       5.50838541     -2.06242340     -0.65844103
H       2.59156934     -0.12972067     -2.91122017
H       2.14902509      0.85403230     -1.49856155
H      -0.92680143     -1.28303199     -0.13085700
H       0.72353239     -1.03613373      0.39771693
H      -1.86348774      1.05657106     -1.79210511
H      -2.25326449      2.35306628     -0.63991156
H      -5.16500751     -1.02376849     -0.14373950
H      -6.07133841     -0.09259830     -1.33254255
H      -5.48339244      0.87427881      1.52065942
H      -6.31021524      1.80106917      0.29374934
H      -7.96649418      0.84423653      1.76388484
H      -8.13199813      0.07512318      0.18919842
H      -8.30654712     -1.54422342      2.08475544
H      -6.65439351     -1.14672098      2.58522420
H      -6.94983405     -1.94868467      1.02880816
