30
CC(C)CCCC(C)CC#N
C      -2.93930163      0.99696059      1.13331695
C      -2.70022387      0.42027074     -0.26278837
C      -3.95666679     -0.31170982     -0.74100104
C      -1.49209967     -0.53376680     -0.30664615
C      -0.16013240      0.15168997      0.01937928
C       1.01620621     -0.81360188     -0.16873157
C       2.37385681     -0.23495657      0.28613681
C       3.41828544     -1.36140167      0.28227906
C       2.82669744      0.93951316     -0.60257305
C       4.02805796      1.60671373     -0.07581913
N       4.97447030      2.13578668      0.33745345
H      -2.10793084      1.63417891      1.44924818
H      -3.84359773      1.61506393      1.14829732
H      -3.06200886      0.20136756      1.87593814
H      -2.51531240      1.25425916     -0.95164104
H      -3.82049032     -0.69594221     -1.75746729
H      -4.19707186     -1.15745704     -0.08770955
H      -4.81937616      0.36286358     -0.75375878
H      -1.42438230     -0.97171954     -1.31096990
H      -1.65273373     -1.36725723      0.38912487
H      -0.04230453      1.02412975     -0.63145579
H      -0.16596042      0.50936854      1.05464726
H       0.80949123     -1.72460962      0.40801345
H       1.07685281     -1.11631112     -1.22192713
H       2.26967782      0.11719339      1.32136839
H       4.38062549     -1.01754103      0.67434569
H       3.09152619     -2.19567731      0.91253991
H       3.58107859     -1.74681114     -0.73009066
H       3.01768744      0.58701611     -1.62319874
H       2.03507976      1.69238719     -0.67220985
