30
Nc1cc(N2CCCCC2)nc(N)[n+]1[O-]
N       3.64481458     -1.20141224      1.87366464
C       2.79129585     -0.52271028      0.96761666
C       1.41036022     -0.57886840      1.10582814
C       0.60605225      0.08929875      0.19054089
N      -0.79636767      0.04940780      0.35400139
C      -1.49395448      1.06013427     -0.46215181
C      -2.97580441      1.08927711     -0.08661112
C      -3.60838517     -0.29124083     -0.23435112
C      -2.81982968     -1.32980727      0.55778219
C      -1.33735642     -1.31220292      0.18227293
N       1.14441648      0.80297549     -0.82161457
C       2.48992267      0.83929724     -0.99113103
N       3.01502169      1.57333931     -2.05961199
N       3.34805505      0.19274229     -0.09544923
O       4.63270993      0.29314792     -0.19756691
H       3.48446918     -0.92542467      2.83751330
H       4.60550612     -0.97905089      1.57703259
H       0.97061785     -1.12404064      1.93316783
H      -1.39174469      0.83868301     -1.53304684
H      -1.07878365      2.05896023     -0.27615289
H      -3.50521336      1.81033989     -0.71923302
H      -3.08441953      1.42794483      0.95145524
H      -3.62937698     -0.57492713     -1.29363205
H      -4.64680282     -0.26551044      0.11387228
H      -3.23604822     -2.32740924      0.37873471
H      -2.92666351     -1.12271117      1.63011282
H      -0.82347166     -2.03741120      0.82370726
H      -1.21122267     -1.64267704     -0.85743251
H       2.41935788      2.35039738     -2.30957687
H       4.00284518      1.75945888     -1.88966693
