20
NNC(=O)Nc1ccccc1
N       4.24113307      0.47399548     -0.20376348
N       3.03834387     -0.23528358     -0.47002219
C       1.84453907      0.26832138      0.06280521
O       1.83268578      1.24601546      0.80300391
N       0.76709879     -0.48977609     -0.34582360
C      -0.59634749     -0.26020624     -0.07516001
C      -1.08180828      0.88546390      0.55772337
C      -2.45324934      1.04304544      0.78312619
C      -3.34994638      0.05872228      0.37474094
C      -2.87668986     -1.08511687     -0.26191768
C      -1.50652749     -1.24275034     -0.48713240
H       3.96511363      1.44115305      0.02197036
H       4.59925728      0.12567896      0.69111156
H       2.96914565     -0.66559115     -1.38819143
H       0.99579254     -1.36816931     -0.78598066
H      -0.41899511      1.68009612      0.88609499
H      -2.81704162      1.93962656      1.27891200
H      -4.41472803      0.18502154      0.55215656
H      -3.57320223     -1.85506169     -0.58337307
H      -1.16457386     -2.14518492     -0.98651706
