16
COc1ccccc1
C       2.63330091      0.25704191      0.51980144
O       1.57358876      1.02648171     -0.03366668
C       0.34288875      0.43195736     -0.08948827
C      -0.66534062      1.22728223     -0.64102744
C      -1.96975404      0.74414213     -0.75817113
C      -2.27416091     -0.54292607     -0.32232224
C      -1.27426185     -1.34250470      0.22892953
C       0.03243061     -0.85735252      0.34581752
H       2.43355600      0.00499050      1.56654595
H       3.54019359      0.86881447      0.49243226
H       2.82090889     -0.64268267     -0.07551431
H      -0.43084591      2.23253629     -0.98221265
H      -2.74429380      1.37280568     -1.18884686
H      -3.28851242     -0.92260752     -0.41184820
H      -1.51097893     -2.34734798      0.56942864
H       0.78128098     -1.51063082      0.78014243
