30
CNC(=O)Oc1ccccc1OC(C)C
C       1.76922874     -0.82957719     -3.57837309
N       2.08829766     -0.95678298     -2.18360274
C       1.67330954     -0.03026368     -1.26503216
O       1.13907950      1.03376003     -1.54974671
O       1.95724272     -0.49861278      0.00545628
C       1.43586748      0.31939891      1.01208961
C       2.30039799      1.20696604      1.65312711
C       1.81323321      2.00248562      2.68789711
C       0.47913128      1.88977897      3.08496568
C      -0.37571453      0.98315462      2.44797690
C       0.09563557      0.19733439      1.39545633
O      -0.66148197     -0.74956408      0.75985959
C      -1.99059098     -0.34429651      0.40333987
C      -2.98358014     -1.14819344      1.23635458
C      -2.17684599     -0.65184475     -1.08006644
H       0.73035125     -1.13512958     -3.72884080
H       2.43330537     -1.48274153     -4.14887013
H       1.89300833      0.20663395     -3.90436863
H       2.35364811     -1.85419085     -1.80247301
H       3.33866985      1.28072721      1.34547045
H       2.47311587      2.70490912      3.19042430
H       0.10479194      2.50251878      3.90154946
H      -1.39748344      0.89292307      2.80111497
H      -2.15878499      0.73023807      0.54876873
H      -4.01577416     -0.89669295      0.97390414
H      -2.84194497     -0.95746410      2.30477628
H      -2.83719488     -2.22427571      1.09007073
H      -1.46678545     -0.07525623     -1.68163673
H      -1.98204526     -1.70913638     -1.29163162
H      -3.19008765     -0.40680602     -1.41294703
