9
c1cn[nH]c1
C       0.61937698      0.76424870     -0.34337935
C       1.07659731     -0.55980011     -0.21324630
N       0.10185173     -1.40127770      0.13966778
N      -0.98078729     -0.61137928      0.23498134
C      -0.72067500      0.69857624     -0.04591338
H       1.18781290      1.64174970     -0.61572288
H       2.07710030     -0.94598069     -0.36047010
H      -1.86469312     -1.03555773      0.49670932
H      -1.49658381      1.44942087     -0.00938390
