16
C[C@H](NC(N)=O)C(=O)[O-]
C      -1.28993998      1.30836685     -0.08807578
C      -0.86734333     -0.11516234      0.24613136
N       0.52920419     -0.35639849     -0.16700278
C       1.60483247      0.03356703      0.55861609
N       2.76517081     -0.43537378      0.02882078
O       1.60643577      0.74746247      1.55062822
C      -1.84184969     -1.14363289     -0.42324583
O      -3.07758171     -0.93247385     -0.27898917
O      -1.24699923     -2.08995792     -1.03269549
H      -0.61679010      2.04006465      0.37085316
H      -2.30334755      1.51899151      0.26904497
H      -1.27460202      1.47827136     -1.17062117
H      -0.92021631     -0.26799372      1.33091377
H       0.59310918     -1.25134571     -0.64917215
H       2.75579948     -0.53029113     -0.97568496
H       3.58411803     -0.00409404      0.43047897
