30
COc1ccc(C(=O)c2coc(S(N)(=O)=O)c2)cc1
C       3.54275642      2.18038996     -3.52814730
O       3.94978440      1.35743758     -2.44184329
C       2.98728097      0.57893148     -1.85959470
C       1.62509372      0.59303053     -2.16663055
C       0.74122757     -0.25655919     -1.48913440
C       1.21806989     -1.11407344     -0.49063053
C       0.31472019     -2.03783775      0.23960234
O       0.67082290     -3.20204128      0.40031574
C      -0.95082508     -1.54063025      0.75853452
C      -1.95898347     -2.35459706      1.22983763
O      -3.01876620     -1.62882351      1.65784021
C      -2.71354331     -0.29386339      1.49452232
S      -3.86609865      0.98869172      1.95353608
N      -4.68765235      0.48985546      3.32942848
O      -3.06527671      2.12900325      2.33310671
O      -4.83771715      1.03975268      0.88712107
C      -1.43536509     -0.21594646      0.95170229
C       2.58492102     -1.14560589     -0.19801058
C       3.45997032     -0.29433449     -0.87521829
H       4.42967038      2.69986801     -3.90421338
H       3.13580549      1.57885471     -4.34711978
H       2.82492588      2.93997475     -3.20084303
H       1.21907364      1.25089547     -2.92979309
H      -0.31076075     -0.24922674     -1.76493478
H      -2.06048644     -3.42892037      1.31607761
H      -5.58911261      0.08869676      3.06596758
H      -4.77657061      1.27502290      3.97424106
H      -0.92745175      0.71612262      0.73994400
H       2.97267511     -1.82819721      0.55613863
H       4.52181227     -0.31587082     -0.63948177
