9
NC(=O)C(F)(F)F
N       1.29918300     -0.53109976     -0.12312441
C       0.23809099     -0.05080237      0.61418660
O       0.33784472     -0.00132703      1.84032396
C      -1.00968155      0.39241240     -0.18384262
F      -0.83531174      0.22385102     -1.52890126
F      -2.12227779     -0.31703516      0.14722086
F      -1.30859004      1.70694322     -0.00093457
H       1.26954883     -0.59331102     -1.13439797
H       2.13119358     -0.82963130      0.36946940
