29
CCOC(=O)N(CC)c1ccccc1
C       4.37993567      0.95459812     -0.51836030
C       3.31422021     -0.09861929     -0.75096653
O       2.05045762      0.45538861     -0.36499851
C       0.98200871     -0.38826622     -0.51334883
O       1.12722739     -1.52721788     -0.94291000
N      -0.22280424      0.20528296     -0.09719300
C      -0.17701056      1.53980235      0.51807862
C       0.19687405      1.49051220      1.99416942
C      -1.49472506     -0.47343791     -0.19580333
C      -2.60219627     -0.06693727      0.57100929
C      -3.84244986     -0.71194757      0.47543717
C      -4.00907455     -1.77947774     -0.39676136
C      -2.93584128     -2.19763001     -1.17253842
C      -1.69688348     -1.55037451     -1.07304847
H       4.16525928      1.85565389     -1.10242889
H       5.36789794      0.57876828     -0.79855572
H       4.40103987      1.25536884      0.53438395
H       3.53199878     -0.98400153     -0.14332614
H       3.29021565     -0.37202899     -1.81170346
H       0.55845345      2.15638967     -0.01257489
H      -1.12651734      2.06525734      0.36985006
H       0.21258164      2.50138294      2.41322493
H       1.18786578      1.04880918      2.13938311
H      -0.51644256      0.89354685      2.57023260
H      -2.53350776      0.74342900      1.28919013
H      -4.67455744     -0.37868178      1.09042227
H      -4.96891608     -2.28258147     -0.47295745
H      -3.05387344     -3.02729737     -1.86514093
H      -0.91123612     -1.90569067     -1.73276532
