28
O=C(O)c1cc(Cl)ccc1N=Nc1ccc(O)cc1
O      -1.16532103      1.82434657     -1.62210426
C      -2.09631225      1.04404198     -1.59026622
O      -2.84686658      0.82722691     -2.68835768
C      -2.56740388      0.23301297     -0.44113565
C      -3.91061601     -0.17948594     -0.38640480
C      -4.36968751     -0.91596644      0.70306689
Cl     -6.01473181     -1.41417037      0.76589024
C      -3.50893802     -1.24551232      1.74544930
C      -2.17433269     -0.83828633      1.69256967
C      -1.68316904     -0.10548011      0.59846640
N      -0.32922428      0.27431458      0.60107608
N       0.36710687     -0.63680128      0.10006573
C       1.72637487     -0.27047341      0.07153877
C       2.67202580     -1.12488998      0.64974970
C       4.03208793     -0.80827250      0.61545401
C       4.44978683      0.36199184     -0.00719118
O       5.78540191      0.63350989     -0.01774227
C       3.53114403      1.22076302     -0.60093800
C       2.17159602      0.89877325     -0.56427623
H      -2.43021308      1.39401841     -3.37174114
H      -4.59915824      0.07994408     -1.18721781
H      -3.86569891     -1.81668170      2.59888536
H      -1.49971503     -1.09716567      2.50634667
H       2.34520459     -2.04200659      1.13206425
H       4.76075952     -1.47273285      1.07076134
H       5.92607409      1.47861467     -0.47558054
H       3.84541220      2.13459234     -1.09455405
H       1.44841371      1.56277498     -1.03347288
