31
CC(O)CCC1CCCCC1
C      -4.20402817      0.29822212     -0.99588205
C      -3.17669102      0.26070741      0.12779358
O      -3.54132163     -0.76423217      1.04796634
C      -1.77189159     -0.02487002     -0.41473914
C      -0.70693878      0.02548485      0.68938358
C       0.70497580     -0.35784430      0.20166957
C       1.25380791      0.62760808     -0.84344738
C       2.68541782      0.28788024     -1.25496561
C       3.61484946      0.19382378     -0.05079437
C       3.08494630     -0.79212763      0.98350832
C       1.65930733     -0.44827727      1.40592519
H      -5.20434255      0.49271832     -0.59418630
H      -4.25507892     -0.66647333     -1.51266976
H      -3.96636017      1.07697185     -1.72685146
H      -3.18259173      1.21627753      0.66424555
H      -4.42556827     -0.54975595      1.39101947
H      -1.75226616     -1.02053621     -0.87524507
H      -1.53635205      0.70864846     -1.19318706
H      -0.99472558     -0.66134401      1.49517138
H      -0.68693481      1.03159434      1.12728918
H       0.64971404     -1.35305377     -0.26046288
H       0.62809577      0.62090863     -1.74232836
H       1.22575496      1.64843185     -0.44171840
H       2.69111164     -0.66661215     -1.79574565
H       3.05854620      1.04934261     -1.94920118
H       3.72070729      1.18453456      0.40806387
H       4.61376803     -0.11540626     -0.37830133
H       3.10817416     -1.80714596      0.56820689
H       3.73963372     -0.79156851      1.86228803
H       1.30154929     -1.21003967      2.10906316
H       1.66473170      0.50613257      1.94813189
