19
O=C(O)COc1cc(Cl)ccc1Cl
O       4.06759578     -1.78103247     -0.60406239
C       3.23414378     -1.10933724     -0.01339320
O       3.50980243     -0.44747854      1.13673969
C       1.80099121     -0.93332791     -0.48776187
O       1.11590421     -0.09045759      0.44026506
C      -0.20189115      0.19594281      0.19365658
C      -0.92771877     -0.27803696     -0.90365121
C      -2.27109878      0.07746795     -1.05833212
Cl     -3.15475906     -0.51175373     -2.41278191
C      -2.90440598      0.90214493     -0.13117440
C      -2.18925509      1.37967563      0.96600777
C      -0.84636036      1.02826969      1.12667068
Cl     -0.00144064      1.64556031      2.50377236
H       2.71021270      0.03131931      1.45135204
H       1.33552304     -1.92400607     -0.51376475
H       1.83336349     -0.46100603     -1.47500280
H      -0.47973680     -0.92273099     -1.65285101
H      -3.94933043      1.17527298     -0.25665218
H      -2.68153957      2.02351392      1.69096365
