19
CCCC(=O)CC
C       3.03604125      0.82883685      0.41545465
C       1.84565226     -0.07490387      0.69186258
C       0.57830214      0.44872734      0.02252411
C      -0.62972260     -0.43764234      0.28307118
O      -0.55997045     -1.45956504      0.96397937
C      -1.92974475      0.02427145     -0.35473898
C      -3.09251755     -0.90440701     -0.05498784
H       2.85792332      1.83962238      0.79614184
H       3.93263999      0.43494294      0.90419390
H       3.23642759      0.89612561     -0.65862862
H       1.69282645     -0.15056995      1.77508707
H       2.06829788     -1.08651286      0.33195726
H       0.34623948      1.45197892      0.39690473
H       0.72573504      0.50601607     -1.06168486
H      -1.77727209      0.08134931     -1.43756542
H      -2.15679449      1.02736540      0.02111933
H      -4.00657928     -0.53673310     -0.53126078
H      -3.27247209     -0.97401634      1.02291178
H      -2.89501209     -1.91488577     -0.42784164
