19
CCC1(C)OC(=O)NC1=O
C      -1.77680682     -1.03582177      0.71351676
C      -1.34394987      0.37073426      0.31306611
C       0.14508511      0.49654190     -0.02281233
C       0.54624175      1.94374717     -0.29200529
O       0.95772863     -0.01146486      1.05056958
C       1.80871449     -0.95305413      0.55358969
O       2.59592443     -1.59111432      1.23073792
N       1.62935038     -1.09468444     -0.76886216
C       0.56348414     -0.37898968     -1.18198862
O       0.04540850     -0.44296263     -2.28381825
H      -1.23889894     -1.38138536      1.60166658
H      -2.84636112     -1.04454103      0.94750091
H      -1.60690796     -1.75266091     -0.09544029
H      -1.95029243      0.69762265     -0.54038261
H      -1.58009828      1.03646655      1.15276922
H      -0.01834974      2.36692044     -1.12944660
H       0.37865568      2.56509648      0.59466369
H       1.61322649      2.02175827     -0.53176395
H       2.07784554     -1.81220861     -1.31156036
