36
O=c1n(CC2CO2)c(=O)n(CC2CO2)c(=O)n1CC1CO1
O       1.45117856     -2.33672074      0.21163782
C       0.77538701     -1.33499020     -0.03567410
N      -0.48006597     -1.15955396      0.50170277
C      -1.02878717     -2.23542997      1.31981575
C      -1.54632119     -3.34576819      0.45328379
C      -2.96987824     -3.83046503      0.56194429
O      -2.55139350     -2.95846868     -0.49623191
C      -1.24650294     -0.03128391      0.30129545
O      -2.32826092      0.13420480      0.86892208
N      -0.71517437      0.92357816     -0.54008047
C      -1.49731823      2.12909207     -0.79908293
C      -1.16822172      3.19880020      0.19742767
C      -1.97099960      3.37962061      1.45988294
O      -2.16733857      4.22221778      0.31507458
C       0.54959122      0.84203104     -1.08093069
O       1.04148824      1.77501952     -1.71926938
N       1.24405995     -0.32374174     -0.84465791
C       2.57323982     -0.47091448     -1.43061433
C       3.62491433      0.01824745     -0.48215819
C       4.13764552      1.43458406     -0.52957448
O       4.87451742      0.34655038     -1.10630656
H      -0.24181039     -2.62993679      1.97344694
H      -1.81954950     -1.85785149      1.97702576
H      -0.77686176     -4.02871131      0.11772590
H      -3.18326925     -4.86029096      0.30358188
H      -3.61740402     -3.41277447      1.32286173
H      -1.27694480      2.49897446     -1.80719655
H      -2.56676528      1.88751736     -0.77749519
H      -0.13582605      3.52047893      0.16862484
H      -1.48232395      3.81517859      2.32217581
H      -2.75316216      2.66832305      1.69615078
H       2.62021238      0.07126363     -2.38263156
H       2.75981746     -1.52669562     -1.65868981
H       3.66854600     -0.53611214      0.44577624
H       3.67803043      2.14184829     -1.20935497
H       4.52555124      1.87217929      0.38159198
