29
CC/C(C)=C/CC/C(C)=C/C#N
C      -3.63972868      1.38603361     -0.88794388
C      -2.36397344      1.43346048     -0.05859787
C      -1.67379899      0.08621287      0.02770794
C      -2.37584539     -0.94379941      0.87206063
C      -0.49572506     -0.11505630     -0.59614455
C       0.31410925     -1.38408340     -0.63931036
C       1.46151292     -1.39913381      0.38063798
C       2.51699761     -0.32878368      0.16105407
C       3.41691568     -0.53991518     -1.02973736
C       2.61767031      0.70868140      1.01606165
C       3.57002333      1.75935954      0.90626995
N       4.34287710      2.62037316      0.82457461
H      -3.43837374      1.02885181     -1.90341301
H      -4.07703253      2.38701341     -0.96207098
H      -4.38894337      0.72853351     -0.43549900
H      -1.69318520      2.18315777     -0.49659239
H      -2.59404961      1.78927692      0.95294042
H      -3.27154128     -1.31046396      0.36146008
H      -1.74584168     -1.80505293      1.10847378
H      -2.67783345     -0.50587340      1.82955219
H      -0.06218338      0.70811689     -1.16493083
H       0.70585495     -1.50864977     -1.65620796
H      -0.32345642     -2.25876682     -0.47012147
H       1.03991062     -1.31719366      1.39155880
H       1.95191954     -2.38063774      0.34761811
H       4.22399373      0.19532800     -1.09458458
H       3.88471371     -1.52867016     -0.97726670
H       2.84222206     -0.47744254     -1.95893141
H       1.93279141      0.78912342      1.85460898
