80
CC(C)CCCCCCCOC(=O)CCCCC(=O)OCCCCCCCC(C)C
C     -11.79310260     -0.99137927     -1.24190552
C     -10.34516416     -1.30056110     -1.63352163
C      -9.94493972     -2.67287002     -1.08836236
C      -9.41439006     -0.17843254     -1.13651680
C      -7.98860560     -0.29229003     -1.68735770
C      -7.11976971      0.92793555     -1.36174331
C      -6.84453055      1.16456461      0.12715250
C      -6.01384939      0.05040196      0.76934071
C      -5.72772773      0.34996713      2.24489279
C      -4.83522240     -0.71179612      2.88747249
O      -3.55758028     -0.76636896      2.23506049
C      -2.63595463      0.13768922      2.66707409
O      -2.79483888      0.93926925      3.57753258
C      -1.38717204      0.05696370      1.82727750
C      -1.55886380      0.88582276      0.55838733
C      -0.33180088      0.86420063     -0.35409324
C       0.88425197      1.56082765      0.25672412
C       2.00380753      1.72014515     -0.74681256
O       2.04498508      1.19736352     -1.85064319
O       2.96874345      2.52491524     -0.21814894
C       4.09788631      2.78845631     -1.06600506
C       5.13792908      1.68049614     -0.91874958
C       6.38424965      1.96949717     -1.75372318
C       7.39947812      0.82236268     -1.75478279
C       7.99091995      0.53247890     -0.37400025
C       9.10039441     -0.52132554     -0.45231719
C       9.66491427     -0.82783976      0.93873299
C      10.81055855     -1.85698321      0.97243692
C      12.05456928     -1.36682005      0.23104694
C      10.38093291     -3.22819359      0.45102075
H     -12.12285638     -0.04498957     -1.68514473
H     -12.46868844     -1.77824972     -1.59644173
H     -11.90425945     -0.91285480     -0.15388429
H     -10.29769769     -1.34171912     -2.73018598
H      -9.95307381     -2.68808542      0.00704714
H     -10.64118981     -3.43986593     -1.44207265
H      -8.94535963     -2.96296032     -1.42829942
H      -9.83042630      0.78878574     -1.44646474
H      -9.39624063     -0.17976401     -0.03997709
H      -8.03673263     -0.39045002     -2.77903267
H      -7.50652664     -1.20115545     -1.31629687
H      -7.60094854      1.82507967     -1.77381370
H      -6.16277510      0.82321012     -1.88903300
H      -7.78450896      1.29710341      0.67123608
H      -6.29766906      2.11075520      0.22192626
H      -6.54136025     -0.90891362      0.70001342
H      -5.07326893     -0.05711266      0.21710936
H      -5.24220388      1.33118338      2.32124721
H      -6.67285071      0.40708784      2.79765652
H      -4.71694204     -0.52434114      3.96157960
H      -5.29181939     -1.70168025      2.78520744
H      -0.55611690      0.42438358      2.43867562
H      -1.17074948     -0.99340695      1.59684970
H      -2.41847227      0.50470597     -0.00661737
H      -1.80586263      1.92243955      0.81915733
H      -0.07551145     -0.17063891     -0.61171687
H      -0.59797394      1.36125475     -1.29599827
H       0.59538174      2.55969752      0.60275482
H       1.27341832      0.98533248      1.10295814
H       4.51998952      3.74455694     -0.73727787
H       3.78354765      2.91931491     -2.10828813
H       5.39749713      1.58122457      0.14103874
H       4.69963519      0.72031112     -1.21401512
H       6.08470139      2.15897795     -2.79206697
H       6.86670284      2.88692101     -1.39250070
H       6.92880753     -0.08552684     -2.15263897
H       8.21043320      1.08488763     -2.44535745
H       8.39461035      1.45776604      0.05506995
H       7.20525364      0.17402961      0.30042129
H       8.69686120     -1.43454346     -0.90326026
H       9.89525709     -0.15392472     -1.11056891
H       8.85109257     -1.19136905      1.57951910
H      10.01967046      0.10543350      1.39507080
H      11.09007865     -1.98274534      2.02646716
H      12.89202083     -2.05403387      0.39283397
H      11.88605167     -1.30083664     -0.84893367
H      12.36072965     -0.37949006      0.59336938
H       9.47876255     -3.57702279      0.96476478
H      11.17028262     -3.96718934      0.62485601
H      10.18119100     -3.21006985     -0.62490046
