11
C=COC=C
C      -2.37225879      0.23688112      0.07487948
C      -1.17138609     -0.34342023      0.03147801
O      -0.01374263      0.38929074      0.07657823
C       1.19267973     -0.25976599      0.02853488
C       2.34963561      0.40396933      0.06899661
H      -2.46597859      1.31533020      0.14778256
H      -3.27985053     -0.35475619      0.03836337
H      -1.04770651     -1.41471294     -0.04105246
H       1.14485129     -1.33712797     -0.04377690
H       2.36707428      1.48635207      0.14175707
H       3.29668223     -0.12204014      0.03017327
