25
C[N+](C)(C)c1ccccc1.[Cl-]
C      -1.83180834     -1.24586512      0.36852528
N      -1.13746572      0.01480688     -0.13667959
C      -1.69376075      1.20147959      0.64358596
C      -1.43466049      0.14897437     -1.62669535
C       0.36935508     -0.03458385      0.05818780
C       1.15404427      1.05570042     -0.35772456
C       2.54253705      1.04759269     -0.19550342
C       3.16858642     -0.04967698      0.38464983
C       2.40837472     -1.13741220      0.80217550
C       1.01770996     -1.13211832      0.64101078
Cl      0.00000000      0.00000000      0.00000000
H      -1.65018391     -1.35062029      1.44297024
H      -1.46333827     -2.10959126     -0.19414646
H      -2.90783207     -1.13652603      0.19502802
H      -1.40522118      1.09716972      1.69449203
H      -1.30718553      2.13370404      0.22243860
H      -2.78438544      1.19069893      0.54892338
H      -0.96587934     -0.68747120     -2.15503400
H      -2.52067357      0.11945335     -1.76176663
H      -1.05424133      1.10618447     -1.99395404
H       0.71418532      1.93658926     -0.81631093
H       3.13814823      1.89860408     -0.52206523
H       4.25003692     -0.05801953      0.51193860
H       2.90233420     -1.99540439      1.25632236
H       0.49132377     -2.01366863      0.98963183
