29
CC1CC(C)(c2ccccc2)CO1
C      -3.57986226      0.98672285     -0.63097045
C      -2.60046733      0.04870572      0.05071211
C      -1.25780495      0.69660690      0.35442403
C      -0.26803458     -0.47122055      0.27926065
C      -0.30380233     -1.29845653      1.58060530
C       1.17716622     -0.05194872      0.01996017
C       1.68856721      1.15280985      0.53274794
C       3.01739470      1.52473971      0.31225161
C       3.86433822      0.69372524     -0.41429433
C       3.38509185     -0.51325320     -0.91354829
C       2.05637814     -0.88571392     -0.69339615
C      -0.91009063     -1.26334623     -0.87246512
O      -2.33315608     -1.07262578     -0.80192161
H      -3.79360745      1.85907880     -0.00635423
H      -3.19009283      1.32962964     -1.59568597
H      -4.52046702      0.46674589     -0.84181307
H      -3.05492097     -0.34028264      0.96899833
H      -1.26645246      1.21287445      1.32054613
H      -1.02252438      1.44496046     -0.41464497
H       0.03162899     -0.70209853      2.43734303
H      -1.30798365     -1.66974948      1.81033067
H       0.35487469     -2.17253333      1.51208958
H       1.06117989      1.81977452      1.11918512
H       3.39104885      2.46328814      0.71350841
H       4.89794699      0.98246314     -0.58434277
H       4.04682044     -1.17057519     -1.47179935
H       1.72329770     -1.84483962     -1.08338686
H      -0.59168250     -0.88917297     -1.85303887
H      -0.69478447     -2.33630863     -0.83430104
