23
CC(=O)OCn1ncc2c(=O)[nH]cnc21
C      -4.17725822     -0.60876327     -0.48466087
C      -3.25649276     -0.06814123      0.56554220
O      -3.57529377      0.13461998      1.72834949
O      -2.02763511      0.15650088      0.04010903
C      -1.11050775      0.69085212      0.99690976
N       0.16110955      0.91149879      0.32694411
N       0.39416777      2.07280665     -0.34681221
C       1.63610936      1.91925632     -0.82577656
C       2.19100473      0.69058254     -0.45611771
C       3.44186826      0.02886387     -0.68034712
O       4.37090400      0.49504336     -1.32767654
N       3.49482051     -1.21515149     -0.07800052
C       2.45263566     -1.74978569      0.65720789
N       1.31140673     -1.16843631      0.87402849
C       1.22892867      0.05496005      0.29173507
H      -4.27430253      0.11278967     -1.29973999
H      -3.79485543     -1.56219217     -0.85758006
H      -5.16620957     -0.77595979     -0.04836389
H      -1.45532997      1.65944945      1.37681339
H      -0.94715776     -0.01101520      1.82186248
H       2.07674829      2.71074617     -1.41880116
H       4.35413257     -1.72854094     -0.20235874
H       2.67120677     -2.74998373      1.06439414
