23
Clc1ccc(Oc2c(Cl)ccc(Cl)c2Cl)c(Cl)c1
Cl      5.03427648      1.62230566     -0.66557489
C       3.57079720      0.76868871     -0.36732840
C       2.48673958      1.43600212      0.20111472
C       1.29443169      0.74937668      0.44618790
C       1.18489110     -0.60591692      0.10982169
O       0.04526930     -1.35081930      0.34399318
C      -1.17217199     -0.71514748      0.22486576
C      -1.70630533     -0.40478574     -1.03457544
Cl     -0.87342378     -0.76841422     -2.50232247
C      -2.96046609      0.20068980     -1.13210540
C      -3.69331534      0.48049229      0.02195592
C      -3.18001497      0.14689512      1.27912542
Cl     -4.15557405      0.51785440      2.65715593
C      -1.92139530     -0.46161949      1.38700660
Cl     -1.26594959     -0.89050985      2.93521317
C       2.29086836     -1.26973781     -0.44323512
Cl      2.21813729     -2.94743388     -0.85053082
C       3.48126040     -0.58285053     -0.68844850
H       2.56566183      2.48872873      0.46255457
H       0.47408981      1.28683428      0.91242819
H      -3.37849311      0.44832815     -2.10587593
H      -4.67109239      0.95025498     -0.06648544
H       4.33177889     -1.09921569     -1.12494063
