46
CN1C(=O)c2ccc3c4ccc5c6c(ccc(c7ccc(c2c37)C1=O)c64)C(=O)N(C)C5=O
C       7.14047101     -0.06032983      0.03007434
N       5.69003076     -0.05122125      0.08056343
C       5.02724348     -1.24083796     -0.19421298
O       5.59716580     -2.29078797     -0.48014654
C       3.54632382     -1.20884603     -0.14419076
C       2.84537167     -2.38975429     -0.35364936
C       1.45374739     -2.38650652     -0.30912245
C       0.70089376     -1.21341932     -0.05730078
C      -0.73219776     -1.20386282     -0.01032417
C      -1.51531498     -2.36775506     -0.20633087
C      -2.90678332     -2.35246916     -0.15949677
C      -3.57700888     -1.16065635      0.08572060
C      -2.86139323      0.01977571      0.28796593
C      -3.54632396      1.20884677      0.53977692
C      -2.84537177      2.38975551      0.74923388
C      -1.45374747      2.38650701      0.70470944
C      -0.70089406      1.21341907      0.45289046
C       0.73219749      1.20386227      0.40591479
C       1.51531502      2.36775434      0.60192111
C       2.90678332      2.35246834      0.55508579
C       3.57700881      1.16065590      0.30986763
C       2.86139293     -0.01977574      0.10762240
C       1.42643157     -0.00980243      0.15255057
C       5.05848801      1.17186992      0.26812325
O       5.65582053      2.23856461      0.38779138
C      -1.42643194      0.00980207      0.24303939
C      -5.02724358      1.24083838      0.58979960
O      -5.59716605      2.29078791      0.87573513
N      -5.69003072      0.05122165      0.31502270
C      -7.14047081      0.06032980      0.36551379
C      -5.05848813     -1.17186997      0.12746460
O      -5.65582093     -2.23856477      0.00779875
H       7.55981669      0.71607743      0.67678640
H       7.53719085     -1.03100167      0.34201224
H       7.44849900      0.13349762     -1.00226971
H       3.37301716     -3.32145892     -0.55197539
H       0.97291528     -3.34569844     -0.48154246
H      -1.05942257     -3.33443802     -0.40296162
H      -3.45847985     -3.27800620     -0.31706792
H      -3.37301711      3.32146097      0.94755658
H      -0.97291482      3.34569891      0.87712826
H       1.05942327      3.33443762      0.79855141
H       3.45848006      3.27800540      0.71265565
H      -7.53719157      1.03100120      0.05357695
H      -7.44849710     -0.13349864      1.39785776
H      -7.55981706     -0.71607708     -0.28119785
