6
CS
C      -0.49081294      0.01532353     -0.05311016
S       1.11706654     -0.79553376     -0.16129687
H      -0.49666250      0.91336585     -0.67581456
H      -0.69530937      0.29820944      0.98247259
H      -1.27329687     -0.66449679     -0.39903003
H       1.83901513      0.23313173      0.30677904
