35
CNC1=Nc2ccc(Cl)cc2C(c2ccccc2)=[N+]([O-])C1
C       3.66239192     -2.04621016      1.49906833
N       3.60320636     -0.65111958      1.11619324
C       2.61429849     -0.13423445      0.31053309
N       2.22330395      1.08246800      0.56681343
C       1.20816740      1.68957523     -0.19271113
C       1.40819831      3.03352172     -0.53421678
C       0.45038250      3.74759627     -1.25718732
C      -0.72935512      3.11944415     -1.64099673
Cl     -1.90993695      3.99375783     -2.53566433
C      -0.96114259      1.78742510     -1.30611794
C       0.00058252      1.07025120     -0.57619343
C      -0.29834864     -0.35109184     -0.24295397
C      -1.65866493     -0.71636600      0.22005624
C      -2.39433353     -1.70560945     -0.43759894
C      -3.69012230     -2.00225876     -0.01295940
C      -4.25004377     -1.30963420      1.06113491
C      -3.51549507     -0.32057533      1.71591634
C      -2.21891591     -0.02053794      1.29645732
N       0.64681791     -1.27309978     -0.35367779
O       0.41698288     -2.49922951     -0.06640487
C       2.01329183     -0.95675875     -0.80161830
H       4.46767759     -2.19130755      2.22561436
H       3.87531548     -2.68598831      0.63835327
H       2.72311593     -2.36199415      1.96298665
H       3.79736049     -0.01685071      1.88791926
H       2.32723149      3.52822568     -0.22611403
H       0.63258952      4.78852934     -1.51109945
H      -1.88812660      1.31356623     -1.61983247
H      -1.96582967     -2.25436771     -1.27196270
H      -4.26064978     -2.77814759     -0.51689822
H      -5.25838316     -1.54573560      1.39197831
H      -3.95189438      0.21370546      2.55589105
H      -1.65300692      0.74636023      1.81878390
H       1.97211701     -0.40768121     -1.74651213
H       2.56121774     -1.88562785     -0.97401855
