11
N=C(N)N[N+](=O)[O-]
N      -0.98288667      0.57520322     -1.18469130
C      -0.55505670      0.26696112     -0.01236423
N      -1.37828123      0.58277498      1.02039819
N       0.58671846     -0.33112252      0.40330876
N       1.60641019     -0.57009487     -0.43242574
O       2.67498203     -0.77447564      0.14521602
O       1.40016917     -0.59202093     -1.64793607
H      -0.28974137      0.28373582     -1.89299449
H      -1.63757852     -0.21269527      1.59369477
H      -2.23026966      0.98571916      0.62993079
H       0.80553429     -0.21398508      1.37786330
