18
Nc1ccc2[nH]c(=O)[nH]c2c1
N       2.93582747      1.08015278      0.07359103
C       1.69233466      0.43277197      0.04743874
C       1.57767085     -0.83229107     -0.58099525
C       0.33954202     -1.46955008     -0.73911713
C      -0.76321623     -0.78632271     -0.29176960
N      -2.10599654     -1.14461365     -0.31949218
C      -2.86211771     -0.09970822      0.23111608
O      -4.07238459     -0.06858922      0.36261338
N      -1.95342128      0.90308399      0.59895527
C      -0.66738144      0.47955033      0.27918302
C       0.53793205      1.12260601      0.44275736
H       3.73146339      0.44919650      0.07753040
H       3.01337414      1.80152616      0.78405997
H       2.47109955     -1.32828309     -0.95472809
H       0.26399686     -2.44288964     -1.20704174
H      -2.50502546     -1.99538329     -0.67974544
H      -2.22285801      1.77805628      1.01687819
H       0.58916027      2.12068697      0.85876598
