20
Cc1ccc(C=O)cc1C
C      -2.03481960      1.53175418     -0.21394667
C      -0.70487903      0.83049638     -0.14394697
C       0.46948014      1.55949142     -0.39608497
C       1.72041706      0.94315099     -0.34031636
C       1.80425184     -0.41331616     -0.03032430
C       3.12979942     -1.06157496      0.02764394
O       3.26757575     -2.24890490      0.29447131
C       0.64679677     -1.15383217      0.22331348
C      -0.61584647     -0.54212817      0.16944713
C      -1.84366516     -1.36609274      0.44745046
H      -2.54320188      1.48015207      0.75399439
H      -2.66514504      1.07543530     -0.98367914
H      -1.91818291      2.59052684     -0.46873068
H       0.41456147      2.61914040     -0.63898630
H       2.61276891      1.53008294     -0.53959235
H       4.00056439     -0.41839910     -0.18321839
H       0.73334060     -2.21255173      0.46378040
H      -2.50410817     -1.37054854     -0.42536802
H      -1.58744468     -2.40700699      0.67191423
H      -2.38226340     -0.96587505      1.31217882
