7
N#CCC#N
N       2.14863352      0.87632816      0.83710136
C       1.18383803      0.30355245      0.53969098
C      -0.01526418     -0.45065312      0.16868590
C      -1.15962541      0.41129069     -0.13431111
N      -2.08267991      1.07085827     -0.37986411
H      -0.28117115     -1.13290886      0.98417032
H       0.20626909     -1.07846759     -0.70192667
