58
COc1ccc2cc(C(C)C(=O)OC(C)OC(=O)C(N)Cc3ccccc3)ccc2c1
C       8.39228774      0.93633285     -1.17488448
O       7.53511808      1.92026677     -0.60873093
C       6.33854686      1.48549194     -0.10823016
C       5.52128785      2.49450527      0.40014722
C       4.26845726      2.19299191      0.93835815
C       3.80969793      0.86895281      0.97850357
C       2.54929092      0.54676752      1.51180111
C       2.09061254     -0.77921907      1.54954846
C       0.71603204     -1.09324860      2.11429505
C       0.80221838     -1.97440520      3.36258619
C      -0.18257899     -1.72882105      1.06096406
O      -0.43488051     -2.92329520      0.97930958
O      -0.64077913     -0.77467655      0.20367598
C      -1.43478496     -1.25824333     -0.89224144
C      -0.50300241     -1.73856226     -2.00094057
O      -2.20152097     -0.14494407     -1.37897605
C      -3.33125589     -0.47188269     -2.06485132
O      -3.67046632     -1.61229964     -2.35351188
C      -4.08090475      0.78940105     -2.51851439
N      -3.30152203      1.48254042     -3.57624058
C      -4.36261896      1.74529266     -1.34622872
C      -5.22515896      1.12445620     -0.27070359
C      -4.65844740      0.69980009      0.93952742
C      -5.45149410      0.10114114      1.92004923
C      -6.81620941     -0.07717667      1.70133162
C      -7.38993627      0.34469526      0.50322915
C      -6.59917432      0.94339223     -0.47903876
C       2.91759563     -1.79054372      1.04416820
C       4.17233734     -1.48360903      0.51199808
C       4.63316683     -0.15903451      0.46966404
C       5.89362973      0.16270335     -0.06955106
H       9.28580411      1.44631261     -1.54642471
H       7.91585494      0.43781894     -2.02639785
H       8.71246509      0.21096770     -0.41945344
H       5.86248884      3.52683752      0.37561012
H       3.65528502      3.00353043      1.32468973
H       1.91696946      1.34429396      1.89860794
H       0.22189343     -0.16276096      2.42720047
H      -0.19601219     -2.14833917      3.78057641
H       1.41512023     -1.49829019      4.13622077
H       1.23942776     -2.95604724      3.14635244
H      -2.10694319     -2.05274340     -0.54443582
H       0.14279029     -2.55279668     -1.65884325
H       0.14986917     -0.92163597     -2.32948007
H      -1.06334750     -2.07869865     -2.87670009
H      -5.02961559      0.46240617     -2.96034677
H      -2.37683907      1.70945107     -3.20669466
H      -3.14475877      0.83002630     -4.34689370
H      -3.42470201      2.10327066     -0.90093274
H      -4.87304869      2.64547009     -1.71573197
H      -3.59460822      0.82983612      1.12683387
H      -5.00511939     -0.22803680      2.85502144
H      -7.43313468     -0.54518282      2.46450242
H      -8.45446380      0.20578550      0.33254307
H      -7.06352621      1.26688255     -1.40872560
H       2.59273855     -2.83010793      1.05400580
H       4.78852707     -2.29361196      0.12704028
H       6.51134157     -0.64194328     -0.45465725
