13
Oc1c(Br)cc(Br)cc1Br
O      -2.42326828      0.67070795      0.11902190
C      -1.09699237      0.33497713      0.05094218
C      -0.68816814     -0.99964419      0.14538492
Br     -1.95869339     -2.38924137      0.37103497
C       0.66494800     -1.33231544      0.07500461
C       1.60924267     -0.32028974     -0.09076563
Br      3.44501667     -0.76323846     -0.18704164
C       1.21655866      1.01423547     -0.18641327
C      -0.13978790      1.34007587     -0.11514867
Br     -0.63329829      3.16682719     -0.24938520
H      -2.93799676     -0.14842977      0.23445408
H       0.98146484     -2.36963653      0.14850226
H       1.96097428      1.79597189     -0.31559052
