14
N#Cc1ccccc1O
N       3.22371085      1.38983677      0.33105529
C       2.13199248      1.01000624      0.22872320
C       0.80461033      0.49171813      0.09822171
C      -0.28055577      1.37853953      0.13263120
C      -1.58650861      0.89943934      0.00755535
C      -1.81446698     -0.46642245     -0.15232946
C      -0.73886324     -1.35413493     -0.18737363
C       0.56601825     -0.87782963     -0.06265648
O       1.55196142     -1.82612134     -0.10926620
H      -0.11674896      2.44767586      0.25695716
H      -2.42586444      1.59066174      0.03473997
H      -2.83026250     -0.84227102     -0.24996181
H      -0.91725204     -2.41947809     -0.31211444
H       2.43222920     -1.42162015     -0.01618184
