65
CCCCOCCOP(=O)(OCCOCCCC)OCCOCCCC
C      -6.32807261      3.69928046      0.25521353
C      -5.37978271      2.76156174     -0.47397275
C      -3.97216259      2.81419098      0.11574158
C      -3.03378406      1.84006695     -0.59477251
O      -1.74821168      1.83017731      0.02577305
C      -0.88178884      2.85106549     -0.47018445
C       0.45629811      2.77790312      0.25989097
O       1.28329280      1.73508883     -0.24014210
P       0.90539402      0.21532659      0.13751925
O       0.42688829     -0.01081739      1.53644983
O       2.26275530     -0.57441593     -0.22916793
C       3.35528175     -0.43633417      0.66159065
C       4.45898779      0.39547296      0.02069418
O       5.56325369      0.46034445      0.91895246
C       6.66440528      1.20966819      0.41335405
C       7.51518081      0.41048662     -0.57483942
C       7.98502938     -0.92550414      0.00555198
C       8.88469134     -1.66749130     -0.96981876
O      -0.08397290     -0.24188307     -1.04528743
C      -0.48180765     -1.60244406     -1.09811032
C      -1.48673905     -1.95951376     -0.00577017
O      -2.02837412     -3.25359386     -0.27476258
C      -2.86483371     -3.73980523      0.77640431
C      -4.23100755     -3.05516656      0.81745719
C      -4.99369516     -3.19833164     -0.50218763
C      -6.38588140     -2.59229921     -0.40740276
H      -7.32104212      3.66520009     -0.20647993
H      -5.96932061      4.73243881      0.21716384
H      -6.43218137      3.41011004      1.30490641
H      -5.34534134      3.03415438     -1.53669640
H      -5.77221057      1.73964523     -0.41588522
H      -3.57807656      3.83517425      0.04566866
H      -3.99704882      2.57553570      1.18637547
H      -2.94861339      2.06683742     -1.66388566
H      -3.43787285      0.82535804     -0.50814421
H      -0.73462954      2.71009856     -1.54772389
H      -1.33560646      3.82871623     -0.28721314
H       1.00285239      3.71093722      0.09590351
H       0.31887497      2.65069014      1.33830583
H       3.73038849     -1.43759152      0.90159209
H       3.04721006      0.01640655      1.61199981
H       4.09040260      1.40520996     -0.18851786
H       4.75671544     -0.05640245     -0.93114253
H       7.28207577      1.48818417      1.27408038
H       6.31099429      2.14178314     -0.04605820
H       6.94386979      0.22172824     -1.49066638
H       8.38244174      1.01730951     -0.85803388
H       7.12202384     -1.55836979      0.24367207
H       8.53228398     -0.75394165      0.93970489
H       8.36716340     -1.85461766     -1.91514452
H       9.79047693     -1.09175502     -1.18091136
H       9.18689270     -2.63180582     -0.55044905
H      -0.93209457     -1.77550356     -2.08210934
H       0.39794833     -2.25734746     -1.04750866
H      -2.28546472     -1.21206338      0.01889558
H      -0.99484542     -1.96867475      0.97133565
H      -3.00253229     -4.81325801      0.59984826
H      -2.35297725     -3.63922547      1.74070929
H      -4.81902391     -3.49140393      1.63250842
H      -4.11018130     -1.99074432      1.04416715
H      -5.08357982     -4.25907524     -0.76530371
H      -4.44481964     -2.70538800     -1.31346307
H      -6.97408417     -3.09110887      0.37091922
H      -6.33644664     -1.52336789     -0.17012417
H      -6.91596589     -2.70690625     -1.35944258
