24
Cc1ccccc1Oc1cccnn1
C      -1.29134085      2.03390135     -0.91550083
C      -1.69322712      0.77329166     -0.20818076
C      -2.88251821      0.72490295      0.53198352
C      -3.25772210     -0.44411390      1.19905439
C      -2.45010789     -1.57852972      1.13486445
C      -1.26162201     -1.54440389      0.40810490
C      -0.87811865     -0.36729928     -0.24176961
O       0.26954146     -0.35592715     -0.99941323
C       1.47114490     -0.29691167     -0.30267949
C       2.62613417     -0.43972132     -1.05110238
C       3.84776765     -0.36993098     -0.39444733
C       3.84118654     -0.15774742      0.97098232
N       2.70178668     -0.01662320      1.67802739
N       1.50010187     -0.08349137      1.03210594
H      -1.06009382      1.82708233     -1.96548287
H      -2.09610650      2.77641965     -0.89872207
H      -0.41417792      2.47454257     -0.43122833
H      -3.52654912      1.59905098      0.59546056
H      -4.18189839     -0.46823945      1.77089258
H      -2.74420591     -2.48691924      1.65341706
H      -0.63253520     -2.42811666      0.35711815
H       2.57387403     -0.60154405     -2.12136014
H       4.78122940     -0.47712322     -0.93471431
H       4.75745700     -0.09254896      1.54651977
