41
COCC1COc2cc3ncnc(Nc4cccc(Br)c4)c3cc2O1
C       6.70195984     -2.47587878      0.67439896
O       5.88164317     -1.48690183      0.06461782
C       4.53468989     -1.56152912      0.52820366
C       3.67312450     -0.50824128     -0.17036875
C       4.17355048      0.90578760      0.11989052
O       3.38698019      1.87990376     -0.58186118
C       2.04644628      1.61765287     -0.48512946
C       1.17653618      2.64034906     -0.86036361
C      -0.20197055      2.48894316     -0.78242170
N      -0.97571919      3.50977502     -1.15857593
C      -2.29689988      3.32583401     -1.07421305
N      -2.91447065      2.22517718     -0.63825979
C      -2.13293442      1.20321632     -0.24603781
N      -2.73464450      0.01913622      0.26264886
C      -4.08780626     -0.38305671      0.18961387
C      -4.93233347     -0.01272936     -0.86489529
C      -6.24681436     -0.48479676     -0.94154240
C      -6.73150579     -1.35975074      0.02653636
C      -5.89188971     -1.76574007      1.05891026
Br     -6.53135301     -2.97528243      2.36501498
C      -4.57890552     -1.29489154      1.13684880
C      -0.72606293      1.27538120     -0.30980482
C       0.16055001      0.22785135      0.04886469
C       1.53672096      0.39903905     -0.05194175
O       2.32105950     -0.66626147      0.29729956
H       6.72644853     -2.33676471      1.75946962
H       7.71779482     -2.36808690      0.28498601
H       6.33821970     -3.47857595      0.43025187
H       4.50553731     -1.41297212      1.61508219
H       4.12703673     -2.55954430      0.32437368
H       3.68603393     -0.68860727     -1.25422488
H       4.12741636      1.13800839      1.19165635
H       5.20988520      1.03331700     -0.20887280
H       1.58555832      3.58310942     -1.21621744
H      -2.92798267      4.15060905     -1.38703924
H      -2.33449665     -0.18282562      1.17318556
H      -4.57409716      0.64794982     -1.65036592
H      -6.88505033     -0.17160191     -1.76375937
H      -7.75279553     -1.72416589     -0.03916389
H      -3.93795706     -1.63885070      1.94377409
H      -0.22150224     -0.73398503      0.38105165
