48
CCN(CC)C(=O)COC(=O)c1cn(CC)c2nc(C)ccc2c1=O
C      -5.42680962     -2.22720199      0.85727951
C      -5.31212446     -0.79105066      1.34400903
N      -4.68474438      0.07092577      0.34193746
C      -5.57209325      0.74834017     -0.60500018
C      -6.07703451      2.07364619     -0.05611286
C      -3.29324445      0.18119519      0.34836934
O      -2.59916405     -0.41297061      1.17860136
C      -2.64971295      1.09056943     -0.71004073
O      -1.22824744      1.14948660     -0.58960755
C      -0.57898609      0.06204322     -1.06909240
O      -1.10158827     -0.88131224     -1.64859519
C       0.85725523      0.13339073     -0.75309653
C       1.50544464     -1.01427947     -0.50542601
N       2.84034228     -1.12998606     -0.16370948
C       3.50270836     -2.41746534      0.06974233
C       4.15131860     -2.93481267     -1.20652826
C       3.64392665      0.02710526     -0.05243084
N       4.95348318     -0.08302158      0.28609424
C       5.70508037      1.04103565      0.39077502
C       7.14582431      0.86857683      0.76920619
C       5.19200309      2.31156653      0.16317491
C       3.85367560      2.43264166     -0.18754634
C       3.07128470      1.28050580     -0.29603046
C       1.64615485      1.38499676     -0.68813861
O       1.17373821      2.47917026     -0.98085606
H      -4.44140211     -2.64709255      0.63040949
H      -5.89690698     -2.85171913      1.62305775
H      -6.03223923     -2.28793608     -0.05281238
H      -4.72173751     -0.76957490      2.26688530
H      -6.30245277     -0.39210920      1.58906564
H      -6.41558154      0.08554160     -0.82845669
H      -5.05333742      0.92456392     -1.55009313
H      -5.24819296      2.75141736      0.17055127
H      -6.72962738      2.56266828     -0.78585983
H      -6.64776309      1.92800866      0.86660954
H      -3.02003231      2.10919496     -0.56184012
H      -2.92626747      0.76516041     -1.71832869
H       0.98125119     -1.96808389     -0.54649185
H       4.24106781     -2.35923923      0.87883943
H       2.76291244     -3.15419487      0.40884212
H       4.92856942     -2.25353209     -1.56690884
H       4.61260189     -3.91102429     -1.02746901
H       3.41086925     -3.04956608     -2.00519455
H       7.38720760     -0.18981523      0.91106309
H       7.35642132      1.39468650      1.70546126
H       7.79376267      1.26310773     -0.01961954
H       5.81851122      3.19321513      0.25379886
H       3.42387536      3.41322752     -0.37653341
