20
C=C(C)C(=O)NCOC
C      -2.01901838      1.71450319     -0.46191331
C      -1.99864964      0.68778416      0.40450444
C      -3.23951056      0.05824653      0.95857943
C      -0.71229592      0.13351349      0.92532519
O      -0.62160421     -0.29693498      2.06917419
N       0.30353899      0.08285488      0.01350364
C       1.55132132     -0.52172634      0.33997309
O       2.35435126     -0.39060573     -0.81819911
C       3.64726471     -0.94113346     -0.60730625
H      -2.95833762      2.12640302     -0.81813074
H      -1.11241631      2.19550315     -0.81530457
H      -4.14535607      0.48100682      0.51105747
H      -3.30121846      0.21162005      2.04091522
H      -3.24311592     -1.01827547      0.75813320
H       0.14816521      0.29433778     -0.95923908
H       1.38648781     -1.57658933      0.58526411
H       1.99450010      0.00188702      1.19408164
H       3.57708424     -2.00880344     -0.37737541
H       4.22717235     -0.81970987     -1.52616491
H       4.16163710     -0.41388146      0.20209291
