29
Oc1ccc(C2CCCCC2)cc1
O       5.15594461     -0.20652409      0.22326693
C       3.79479632     -0.12790336      0.23289835
C       3.04043646     -0.47768933     -0.88090158
C       1.64728384     -0.38140102     -0.82603959
C       1.00185576      0.06382065      0.33915099
C      -0.51082843      0.17650007      0.42183349
C      -1.19662539     -1.19056562      0.25348008
C      -2.71659893     -1.06798749      0.34721175
C      -3.26166386     -0.04729745     -0.64753473
C      -2.58507813      1.31120617     -0.48903012
C      -1.06455432      1.19858610     -0.58626193
C       1.78744600      0.41071220      1.44962882
C       3.17935759      0.31486250      1.39582052
H       5.43895909     -0.52838824     -0.64794118
H       3.51195192     -0.82485171     -1.79445885
H       1.06838140     -0.65806015     -1.70419641
H      -0.76879416      0.54361838      1.42575191
H      -0.93755416     -1.63653892     -0.71512892
H      -0.84085769     -1.88718207      1.02275555
H      -2.99667382     -0.77144197      1.36551641
H      -3.17667225     -2.04513462      0.16172150
H      -3.10605358     -0.41502048     -1.66927027
H      -4.34316355      0.06136957     -0.50845926
H      -2.85761114      1.74418414      0.48132114
H      -2.95315998      1.99815941     -1.25942095
H      -0.79653333      0.91452280     -1.61177931
H      -0.61581855      2.18373768     -0.40809771
H       1.32195923      0.75947931      2.36869638
H       3.77986905      0.58522755      2.25946698
