12
C=CC(=O)OC
C       2.44801733      0.30150498      0.71744870
C       1.35731503     -0.40019148      0.38449730
C       0.02118398      0.23241114      0.38060555
O      -0.20968619      1.39556962      0.66524098
O      -0.88414914     -0.70619458      0.00781564
C      -2.22634352     -0.22141502     -0.03689185
H       3.42827477     -0.16282858      0.72024357
H       2.38657166      1.35109705      0.99354884
H       1.41760696     -1.44591591      0.10929286
H      -2.31904654      0.58473006     -0.77150892
H      -2.54522226      0.11763854      0.95380793
H      -2.87452207     -1.04640583     -0.34521161
