20
COc1cc(Cl)c(Cl)c(Cl)c1OC
C      -2.64637102     -1.06398071     -0.28063456
O      -1.73109649     -0.03527141      0.07495647
C      -0.39684143     -0.34426403      0.08645489
C       0.14285291     -1.54719496     -0.36691363
C       1.52344919     -1.77613342     -0.29632378
Cl      2.09216146     -3.30232968     -0.88760780
C       2.38768334     -0.80629555      0.23358064
Cl      4.09580601     -1.11214291      0.32121502
C       1.85276521      0.40826435      0.68751985
Cl      2.87128901      1.64343857      1.36450294
C       0.46899211      0.64105051      0.59164583
O      -0.05259972      1.81831706      1.08087237
C      -0.29486993      2.74119334      0.01788763
H      -2.54782696     -1.92977370      0.38254306
H      -3.65879780     -0.66631313     -0.16161113
H      -2.52295850     -1.35202901     -1.32957886
H      -0.48888748     -2.32775975     -0.78001019
H      -1.13106544      2.41582384     -0.60890060
H       0.60037055      2.89301430     -0.59549247
H      -0.56405501      3.70238629      0.46589430
