16
C=C(C#N)C(=O)OCC
C       3.12583602      0.37864428     -0.12753616
C       1.92322487     -0.22135522     -0.08127581
C       1.80664228     -1.63271406     -0.20193522
N       1.74869490     -2.78769501     -0.30384578
C       0.71550697      0.62392559      0.09907667
O       0.74031471      1.84179997      0.20960696
O      -0.40477588     -0.14110353      0.12311000
C      -1.62395512      0.59329307      0.29417791
C      -2.77388446     -0.39477415      0.30009182
H       4.04177213     -0.19105461     -0.25771616
H       3.22822207      1.45724871     -0.03644919
H      -1.59731957      1.13670774      1.24529066
H      -1.74777367      1.30116510     -0.53299234
H      -2.65235645     -1.12276174      1.10902779
H      -3.73009771      0.11999438      0.42860041
H      -2.80005107     -0.96132051     -0.63663280
