35
O=C(OCC(=O)N1CCCC1C(=O)O)c1ccccc1
O      -2.77014624      0.41738765     -1.36690325
C      -2.46026171     -0.27776312     -0.41208030
O      -1.21456114     -0.38243981      0.10755712
C      -0.24252734      0.41717599     -0.56424364
C       1.13559599      0.21424893      0.06472262
O       1.33171316     -0.49778845      1.05378443
N       2.19042199      0.90493007     -0.48627232
C       2.11614293      1.79971108     -1.63235032
C       3.51578146      2.37794568     -1.75537972
C       4.39673203      1.23597106     -1.26192786
C       3.58877060      0.64407740     -0.10170596
C       3.98342479      1.25516920      1.25742063
O       5.02618732      1.86200892      1.46426634
O       3.12045668      0.97793189      2.26389594
C      -3.41841404     -1.13233170      0.33962274
C      -3.02727140     -1.91519706      1.43488538
C      -3.96772724     -2.70014510      2.10653619
C      -5.29856667     -2.70760940      1.68975975
C      -5.69455258     -1.93142145      0.60136548
C      -4.75801826     -1.14530144     -0.07284884
H      -0.51307182      1.47435264     -0.46793704
H      -0.18745665      0.12028086     -1.61745790
H       1.85328508      1.20321629     -2.51278005
H       1.35316705      2.56756323     -1.47837058
H       3.62632662      3.24622430     -1.09479423
H       3.75312525      2.69019709     -2.77597176
H       5.40143212      1.57272228     -0.99241789
H       4.49636142      0.48819739     -2.05897956
H       3.75704691     -0.43680942     -0.02665636
H       2.40161270      0.35695537      1.98968898
H      -1.99510235     -1.92468750      1.77805548
H      -3.66105477     -3.30579167      2.95615723
H      -6.02848209     -3.31931216      2.21483562
H      -6.73249067     -1.93747766      0.27745301
H      -5.07787912     -0.54271544     -0.92092937
