43
CCN(CC)C(C)C(C)OC(=O)c1ccc(N)cc1
C      -3.44863815      1.06415856     -2.53045216
C      -3.63715972      1.17954908     -1.02013971
N      -2.88032994      0.15710560     -0.27616000
C      -3.42738478     -0.04551739      1.07708101
C      -4.70466439     -0.88092340      1.05805081
C      -1.41174796      0.40461884     -0.27797177
C      -0.96312279      1.50636230      0.70000131
C      -0.59768041     -0.91191191     -0.05822357
C      -0.97728843     -1.99859687     -1.06536535
O       0.81124943     -0.65265087     -0.27473016
C       1.60428505     -0.60338974      0.82285154
O       1.23992570     -0.72162498      1.98155207
C       3.01893134     -0.35976146      0.42978762
C       3.97851585     -0.24848593      1.44260032
C       5.32078952     -0.02057993      1.12140174
C       5.71935682      0.14173720     -0.20729170
N       7.07618756      0.24836381     -0.52768757
C       4.76922687     -0.02922535     -1.21722166
C       3.42378814     -0.25786416     -0.90622475
H      -3.66030270      0.04696326     -2.87686303
H      -2.43742376      1.33451304     -2.84620412
H      -4.14053579      1.74112230     -3.04296983
H      -4.71136878      1.05979162     -0.84250060
H      -3.38697607      2.19294548     -0.68728317
H      -2.71596758     -0.59676085      1.70171931
H      -3.61234289      0.91170394      1.58003725
H      -5.01879579     -1.10178671      2.08372867
H      -4.54147266     -1.83555700      0.54649329
H      -5.53368860     -0.36406510      0.56697720
H      -1.11319118      0.75797633     -1.27230046
H       0.08110870      1.78234885      0.51936796
H      -1.55113485      2.42101315      0.57738634
H      -1.04630590      1.18510788      1.74325711
H      -0.76897573     -1.31153259      0.94754910
H      -0.83727188     -1.64575939     -2.09318939
H      -2.01399158     -2.32515521     -0.94335506
H      -0.32755659     -2.87231674     -0.94254321
H       3.69022366     -0.35250402      2.48691154
H       6.05315291      0.02890680      1.92322412
H       7.64304084      0.66453875      0.20468251
H       7.25661171      0.66279427     -1.43667891
H       5.06865678      0.01324217     -2.26149354
H       2.71026803     -0.36889366     -1.71864166
