24
COC(=O)C1=CCCN(C)C1
C       4.18350292     -0.53801029      0.03877358
O       2.82954301     -0.59017308      0.48810541
C       1.94165669     -0.02033098     -0.36603362
O       2.22264394      0.49609980     -1.43829877
C       0.55175319     -0.09803831      0.15782745
C       0.22177813     -0.77524547      1.27476805
C      -1.20407204     -0.85356873      1.74275206
C      -2.21295783     -0.38402784      0.67999027
N      -1.75866974      0.85915820      0.04325176
C      -2.76700519      1.37888354     -0.87745968
C      -0.47589662      0.64313887     -0.66339299
H       4.81051792     -1.01601419      0.79649515
H       4.29718347     -1.08723826     -0.90114061
H       4.51036440      0.50028147     -0.07596694
H       0.96735110     -1.28872541      1.87413536
H      -1.43725335     -1.88764423      2.02096983
H      -1.30400062     -0.24182957      2.64757658
H      -3.18017828     -0.22880680      1.17362688
H      -2.35628238     -1.17374231     -0.07018804
H      -2.99304010      0.67485844     -1.68644029
H      -3.69778687      1.59818785     -0.34273251
H      -2.43140051      2.32162497     -1.32361452
H      -0.07852218      1.62939523     -0.93399760
H      -0.63922907      0.08176711     -1.59342435
