19
CC(=O)Nc1ccc(Br)cc1
C       3.47238097      0.36061445     -0.31356142
C       2.17832874     -0.31775014      0.06252459
O       2.18126261     -1.42934098      0.57855206
N       1.07267828      0.44405340     -0.27077432
C      -0.28495057      0.12087867     -0.06931386
C      -0.72663397     -1.05977733      0.53224793
C      -2.09490757     -1.30580394      0.69666781
C      -3.02658254     -0.36911924      0.25916334
Br     -4.87317988     -0.70205335      0.48159158
C      -2.60315555      0.81254940     -0.34158825
C      -1.23556519      1.05508926     -0.50427305
H       3.41377737      1.43898608     -0.13994023
H       4.28364469     -0.03769786      0.30265164
H       3.68887338      0.16848454     -1.36764288
H       1.25370180      1.33362435     -0.71826687
H      -0.03195877     -1.81473952      0.88761814
H      -2.41514897     -2.23177942      1.16738783
H      -3.32437562      1.54897984     -0.68569874
H      -0.92818920      1.98480180     -0.97611326
