14
CCCOC=O
C       2.09698509     -0.34865438     -0.08149506
C       0.89303239      0.57596373     -0.08787621
C      -0.41754433     -0.19876742     -0.02306079
O      -1.49479812      0.74749413     -0.03356343
C      -2.72637788      0.18302557      0.02075772
O      -2.98003167     -1.00924946      0.07529709
H       3.02266589      0.23335652     -0.12867736
H       2.07671979     -1.02490864     -0.94205538
H       2.12216954     -0.95349461      0.83055112
H       0.95204090      1.26998508      0.75914667
H       0.90719617      1.19952214     -0.98985717
H      -0.46010737     -0.79108134      0.89861317
H      -0.50598645     -0.86317129     -0.89074481
H      -3.48596395      0.97997996      0.00812608
