34
CCOP(=S)(OCC)Oc1cc(Cl)c(Cl)c(SC)c1
C      -3.60851107     -2.91151681     -0.57682725
C      -2.46312518     -2.14031896     -1.19996545
O      -2.54463356     -0.79019392     -0.77452922
P      -1.27490614      0.18110317     -1.03910618
S      -0.78029479      0.45290102     -2.89504102
O      -1.71502631      1.49308352     -0.19789760
C      -2.85625461      2.21794798     -0.62473270
C      -3.18031331      3.26357511      0.42252174
O      -0.16290631     -0.48253737     -0.07062954
C       1.04783445      0.05406061      0.26475909
C       1.43408419      1.36259645      0.00352840
C       2.69840396      1.81210230      0.40655851
Cl      3.09311076      3.46033666      0.04698532
C       3.58847390      0.95343515      1.07245826
Cl      5.14603668      1.53306123      1.57924190
C       3.19788778     -0.37355613      1.32969186
S       4.22022970     -1.58062120      2.17776399
C       5.26766417     -2.09027282      0.78899039
C       1.92282681     -0.80471227      0.93110185
H      -4.57034800     -2.47735689     -0.86922603
H      -3.58631381     -3.96050806     -0.88503435
H      -3.55620327     -2.86290721      0.51588699
H      -1.50796658     -2.57624570     -0.89125045
H      -2.53652956     -2.18119846     -2.29070958
H      -3.70590068      1.54013357     -0.75124352
H      -2.64292530      2.70387615     -1.58129910
H      -4.05483497      3.85134585      0.12997007
H      -3.37940819      2.79107656      1.39010696
H      -2.33164764      3.94033333      0.56731475
H       0.77190742      2.06052751     -0.50004110
H       5.85405447     -1.24944533      0.41032243
H       5.95703932     -2.86818615      1.12780895
H       4.65564115     -2.49730858     -0.02068411
H       1.60285450     -1.82461029      1.14033451
