41
CCC(C)c1cc([N+](=O)[O-])cc([N+](=O)[O-])c1OC(=O)C=C(C)C
C      -1.04062071     -2.67396179     -1.92736926
C      -1.43205312     -1.32654357     -1.33656637
C      -1.37485371     -1.29541075      0.20393101
C      -2.38984836     -2.24786831      0.84992270
C      -1.54878431      0.13753475      0.70379240
C      -2.80707273      0.76772220      0.64057826
C      -2.97358675      2.08957578      1.08793626
N      -4.30101831      2.71722044      1.01575857
O      -5.21091027      2.07818576      0.47037110
O      -4.42935100      3.84419690      1.51230446
C      -1.89524659      2.81179451      1.60912069
C      -0.63730131      2.19765936      1.66646574
N       0.47591043      2.95951979      2.22919263
O       0.45730173      4.18805018      2.07333721
O       1.34868392      2.33962091      2.85203473
C      -0.45761060      0.88280818      1.19966963
O       0.79884413      0.26432246      1.22930929
C       1.58979667      0.62926650      0.15097226
O       1.28817292      1.40735707     -0.73858205
C       2.87563389     -0.09511783      0.28584254
C       3.71563398     -0.39712290     -0.72304346
C       3.47025658     -0.11240724     -2.18015034
C       5.02507910     -1.08575137     -0.43947790
H      -1.01376246     -2.61037090     -3.02000989
H      -0.04813009     -2.98069762     -1.58247649
H      -1.75889724     -3.45408299     -1.65937538
H      -2.43646639     -1.06145166     -1.68943431
H      -0.75100776     -0.56780346     -1.74308481
H      -0.38776873     -1.66112415      0.51147999
H      -2.39754052     -2.13122130      1.93958266
H      -3.40775340     -2.07394842      0.48564994
H      -2.13731063     -3.29150801      0.63626339
H      -3.65871953      0.22377661      0.23204822
H      -2.02705731      3.83353194      1.96312474
H       3.12887288     -0.36566766      1.30740074
H       3.73189135     -0.98860830     -2.78391151
H       4.08991101      0.72746610     -2.50967900
H       2.42669689      0.11363547     -2.40903821
H       5.06038057     -2.05765166     -0.94249486
H       5.85912456     -0.47539625     -0.80105915
H       5.18048119     -1.25952878      0.63059212
