47
CC12CCC3C(CCC4=CC(=O)CCC43C)C1CCC2=O
C      -2.78041185      2.09552627     -0.18137470
C      -2.57672272      0.67605292      0.35186630
C      -1.70496659      0.65997157      1.61109580
C      -0.20454994      0.70000354      1.32500898
C       0.24663860     -0.46113383      0.41100364
C      -0.55508327     -0.42055077     -0.92193289
C      -0.03688440      0.70230932     -1.83899170
C       1.44190158      0.53278252     -2.15544163
C       2.28598334      0.42310085     -0.90983672
C       3.43129054      1.12419619     -0.82037477
C       4.38908718      0.92294747      0.29412742
O       5.41473670      1.59767704      0.33774406
C       4.10193130     -0.17326574      1.28862235
C       2.59752964     -0.30894255      1.48667305
C       1.81206899     -0.55766895      0.16434549
C       2.14421040     -1.99284579     -0.32702186
C      -2.08461634     -0.31349987     -0.73015890
C      -2.70505327     -1.65720958     -0.30881472
C      -4.12111754     -1.30479067      0.11860485
C      -3.93587577      0.07047889      0.70231006
O      -4.79025354      0.63078839      1.37894857
H      -3.30819991      2.71855101      0.55041054
H      -1.83578865      2.59578129     -0.40370000
H      -3.38869743      2.09459480     -1.09295542
H      -1.91532758     -0.23968929      2.20607283
H      -1.96914630      1.50258075      2.26342361
H       0.28334298      0.62813239      2.30202476
H       0.07764708      1.66864638      0.89910522
H      -0.03721217     -1.38255247      0.93945759
H      -0.37859982     -1.36345321     -1.45628854
H      -0.59861412      0.70041697     -2.78121154
H      -0.18748688      1.68645348     -1.38831396
H       1.58320977     -0.37194824     -2.75966715
H       1.76624379      1.37356705     -2.78107948
H       3.75995426      1.81542448     -1.58915889
H       4.56125589     -1.10233367      0.93946847
H       4.56566950      0.09694688      2.24396480
H       2.27803725      0.63209147      1.94799505
H       2.38861956     -1.10549026      2.21105743
H       1.89100887     -2.73522868      0.43864363
H       3.20784831     -2.11136053     -0.56123033
H       1.59669151     -2.26302408     -1.23513280
H      -2.54082114     -0.05168956     -1.69654576
H      -2.16382705     -2.10558801      0.53196157
H      -2.70356999     -2.38382849     -1.12780784
H      -4.50708778     -2.00399308      0.86332130
H      -4.79499300     -1.23893461     -0.74021771
