24
CCSC(=S)OC(CC(=O)O)C(=O)O
C       3.46431409     -0.50016716     -1.03422704
C       2.46490284      0.30165587     -1.84922378
S       2.14063267      1.92147291     -1.09369674
C       1.06021420      1.42875028      0.20276669
S       1.35559228      1.85010411      1.79274497
O      -0.05223787      0.74565966     -0.19068090
C      -0.98572012      0.10504247      0.71825902
C      -2.23009305     -0.25143213     -0.08668379
C      -3.31503704      0.73172713      0.22109437
O      -3.65129236      1.67551940     -0.47240065
O      -3.92078121      0.48865683      1.39721375
C      -0.37895134     -1.17234539      1.28264018
O       0.64847579     -1.71754907      0.91142570
O      -1.10312481     -1.69740041      2.29100578
H       4.41899289      0.02819146     -0.93856656
H       3.66478329     -1.45612314     -1.52954976
H       3.08918142     -0.72238433     -0.03070547
H       2.87615562      0.47876877     -2.84833164
H       1.53358761     -0.25802301     -1.97869664
H      -1.21998049      0.78408185      1.54503055
H      -2.04468937     -0.22037222     -1.16692563
H      -2.62061943     -1.25143071      0.13648245
H      -4.60242618      1.19092437      1.47279752
H      -0.59187943     -2.48332754      2.58044896
