21
Nc1ccc(C(=O)O)c(S(=O)(=O)O)c1
N       3.19020821      0.52960248     -1.33360910
C       1.96825244      0.49016135     -0.65936564
C       1.42234106      1.65918002     -0.12560783
C       0.14358664      1.66014445      0.44065586
C      -0.62925296      0.49104251      0.44540929
C      -1.99956495      0.54353561      0.99857106
O      -2.96268136     -0.05820602      0.55835177
O      -2.07869312      1.34571387      2.07100626
C      -0.10555847     -0.66834313     -0.13630334
S      -1.00367235     -2.19758758     -0.09709229
O      -0.21685811     -3.19239879     -0.79503741
O      -1.41899265     -2.40521771      1.27329707
O      -2.32612842     -1.92379913     -0.98071853
C       1.17945877     -0.66074347     -0.70193926
H       3.82822557      1.25184211     -1.01317046
H       3.64956032     -0.37161702     -1.43211106
H       1.99002824      2.58689788     -0.14858817
H      -0.24860440      2.58600112      0.85730646
H      -3.00381778      1.27325359      2.38846462
H      -2.95231166     -1.37915751     -0.43835257
H       1.57447500     -1.56030464     -1.17116673
