26
CC(C)(C)c1ccc(C=O)cc1
C      -1.81015217      1.57196369     -0.78574454
C      -1.52577450      0.29611307      0.03600407
C      -2.42469991     -0.82414256     -0.53453753
C      -1.95895728      0.52732858      1.49984403
C      -0.02079749     -0.02668456     -0.01354931
C       0.47769866     -1.23443340     -0.53310165
C       1.85131976     -1.50013285     -0.56511026
C       2.75449884     -0.55855468     -0.07595634
C       4.20515186     -0.83013023     -0.10563670
O       4.66642813     -1.87302782     -0.55226966
C       2.29238530      0.64760261      0.44523641
C       0.91806950      0.90645412      0.47407067
H      -1.48487256      1.45175744     -1.82594811
H      -1.29585786      2.44994274     -0.37986081
H      -2.88138863      1.80491609     -0.79603020
H      -2.30582017     -1.76037762      0.02321901
H      -3.48447817     -0.54790023     -0.47727994
H      -2.20085256     -1.02350656     -1.58900796
H      -1.74170683     -0.35123898      2.11887718
H      -1.44775819      1.38353999      1.95334655
H      -3.03523937      0.72486221      1.56706539
H      -0.18517778     -2.00070575     -0.92648805
H       2.20911558     -2.44354339     -0.97300665
H       4.86126154     -0.04078766      0.29785452
H       2.98198113      1.39350614      0.83105007
H       0.58562320      1.85717962      0.88695982
