33
CCOC(=O)N(c1ccccc1)c1ccccc1
C       4.27122446     -1.31037213     -0.78699277
C       3.55910018     -0.03091095     -0.39348574
O       2.15727756     -0.31104245     -0.31013002
C       1.37491433      0.75279740      0.05521750
O       1.86387061      1.85703794      0.28361071
N       0.00266713      0.44128433      0.10090179
C      -0.98530887      1.48948220      0.17374327
C      -2.19632050      1.30967624      0.86861824
C      -3.15186484      2.32877519      0.94059605
C      -2.91389942      3.55208591      0.32336035
C      -1.71971624      3.75736862     -0.36002676
C      -0.76429773      2.73730406     -0.43038890
C      -0.46510542     -0.91704989      0.11529857
C       0.17707190     -1.89461514      0.89058075
C      -0.27863557     -3.21620413      0.90009753
C      -1.38016867     -3.58139134      0.13038663
C      -2.02664260     -2.62722487     -0.65058370
C      -1.57231590     -1.30561326     -0.65906922
H       5.35001417     -1.14888178     -0.86404756
H       3.89880798     -1.67862108     -1.74867047
H       4.08286019     -2.09830464     -0.05016910
H       3.92756071      0.31186750      0.57978649
H       3.73778592      0.74008185     -1.15113826
H      -2.40457426      0.38208236      1.39696618
H      -4.07612069      2.16640195      1.48911904
H      -3.65312482      4.34658217      0.38096664
H      -1.52444374      4.71262335     -0.84086220
H       0.14649136      2.93655143     -0.98984578
H       1.02565762     -1.63592393      1.51907448
H       0.22780075     -3.95869245      1.51158976
H      -1.73198659     -4.60986329      0.13643598
H      -2.88064041     -2.91040387     -1.26055716
H      -2.07793861     -0.58688730     -1.30038233
