56
CC(c1ccccc1)c1ccc(Nc2ccc(C(C)c3ccccc3)cc2)cc1
C      -5.35611154      0.50416675     -2.41462897
C      -5.20922954     -0.36252258     -1.15515146
C      -6.35515033     -0.25365580     -0.15135624
C      -7.27285378      0.80787749     -0.14526454
C      -8.30083041      0.85971016      0.80045903
C      -8.42582303     -0.14503104      1.75650734
C      -7.52192082     -1.20297363      1.77052823
C      -6.49546462     -1.25648627      0.82574730
C      -3.84330943     -0.11852866     -0.52275187
C      -2.82070385     -1.06451606     -0.67243537
C      -1.55722119     -0.84731818     -0.11047096
C      -1.28011161      0.31137162      0.62018192
N      -0.01648389      0.58620801      1.17014645
C       1.27740052      0.17170262      0.81199411
C       2.27204481      0.12653543      1.79531038
C       3.56604677     -0.31369088      1.49567429
C       3.90642101     -0.73168246      0.19955706
C       5.33568032     -1.19194368     -0.07553225
C       5.51986082     -2.02854664     -1.35035445
C       6.33758229     -0.04201253     -0.06418629
C       6.18288571      1.07212581     -0.90471909
C       7.11520663      2.11118447     -0.88890859
C       8.21529173      2.04942481     -0.03675230
C       8.38478464      0.94875981      0.80036453
C       7.45318187     -0.09127990      0.78680308
C       2.91041716     -0.68718271     -0.78385250
C       1.61547872     -0.24817395     -0.47674757
C      -2.30219038      1.25871059      0.76066606
C      -3.56627227      1.05026626      0.19833103
H      -6.31286710      0.31390550     -2.91366874
H      -4.55827622      0.28132589     -3.13275911
H      -5.29753963      1.57533043     -2.19080187
H      -5.23881017     -1.40225643     -1.51411702
H      -7.20439256      1.61422107     -0.87019520
H      -9.00377063      1.68866405      0.79081013
H      -9.22461257     -0.10146356      2.49173276
H      -7.61168017     -1.98625278      2.51840266
H      -5.79333284     -2.08767394      0.85853087
H      -2.99585653     -1.98425127     -1.22588829
H      -0.79894290     -1.61720694     -0.22442474
H      -0.04108942      1.21643484      1.96329894
H       2.04702001      0.42828920      2.81499788
H       4.31333287     -0.32504845      2.28689535
H       5.58545008     -1.87110363      0.75337637
H       5.34055340     -1.44504289     -2.26043118
H       6.54327282     -2.41677032     -1.41339955
H       4.83878829     -2.88683479     -1.35884049
H       5.32882529      1.14126503     -1.57503098
H       6.98029465      2.96961607     -1.54165581
H       8.93994804      2.85911105     -0.02505714
H       9.24370730      0.89925198      1.46441989
H       7.60582713     -0.94269956      1.44606821
H       3.11762218     -0.98136904     -1.80898701
H       0.88108614     -0.20418969     -1.27656940
H      -2.12015625      2.18208444      1.30456222
H      -4.33300750      1.81016491      0.33148103
