41
CC(=O)C(N=Nc1ccc(C)cc1[N+](=O)[O-])C(=O)Nc1ccccc1
C       0.67643457      1.32724109      4.60817897
C      -0.24101356      0.92651637      3.47779716
O      -1.42046675      0.65055337      3.71827728
C       0.34147577      0.94097205      2.07018801
N      -0.70935915      0.49793756      1.12743705
N      -1.22220605      1.45516667      0.50881669
C      -2.23313757      0.98644516     -0.34974341
C      -3.56121864      1.08769792      0.08975178
C      -4.62558347      0.66330760     -0.71211243
C      -4.38943481      0.13856012     -1.98657945
C      -5.53012307     -0.35290413     -2.82940108
C      -3.06962835      0.02140649     -2.43844485
C      -2.00294651      0.45189171     -1.62648929
N      -0.64310124      0.31071187     -2.14400565
O      -0.44858263     -0.55810471     -3.00633410
O       0.24389349      1.06438323     -1.71276457
C       1.53786828      0.01762911      1.87659746
O       2.04379211     -0.58617023      2.81853388
N       2.00185263      0.00527954      0.56599600
C       3.11252041     -0.69724876      0.05101433
C       3.96790875     -1.48635710      0.82237809
C       5.04872371     -2.15052314      0.23134538
C       5.28522407     -2.03037460     -1.13546944
C       4.44053237     -1.24524021     -1.91391864
C       3.36123975     -0.58235808     -1.32313652
H       0.08818005      1.80132334      5.39935615
H       1.17895247      0.44621298      5.01219461
H       1.41394897      2.05329733      4.25641728
H       0.66643543      1.96832009      1.85634830
H      -3.76564851      1.49031533      1.08124816
H      -5.64152666      0.74344560     -0.32828722
H      -6.44131132      0.21906617     -2.62560591
H      -5.30643885     -0.23708102     -3.89516487
H      -5.72119751     -1.40988967     -2.62012833
H      -2.87865822     -0.40518914     -3.42264116
H       1.45374183      0.52487443     -0.11982589
H       3.82552943     -1.61204678      1.89033981
H       5.70388620     -2.76370051      0.84520534
H       6.12397376     -2.54885156     -1.59177169
H       4.61712046     -1.14837306     -2.98200501
H       2.71834838      0.02185758     -1.95820809
