42
CCCCCCCCCCOC(=O)C(C)O
C      -5.29417675      0.09226924     -3.04742195
C      -4.01770306     -0.31784465     -2.32873200
C      -4.32431808     -1.01072612     -1.00048754
C      -3.07723158     -1.54536492     -0.29059733
C      -2.12539169     -0.44317431      0.17951905
C      -0.95676816     -1.02478237      0.97997607
C      -0.00068297      0.07637119      1.44264115
C       1.13257998     -0.43748717      2.33534780
C       2.05568796     -1.48525350      1.70134927
C       2.72959932     -1.03635117      0.40715776
O       3.45902095      0.17204448      0.65253000
C       4.02694190      0.72098623     -0.45424463
O       3.99655783      0.23748533     -1.58116141
C       4.78473592      2.00746506     -0.11583734
C       3.91073179      3.00067674      0.63125416
O       5.26247798      2.65185604     -1.29900784
H      -5.91648981     -0.78006474     -3.27121371
H      -5.88135070      0.78672671     -2.43808173
H      -5.05386720      0.58896880     -3.99266675
H      -3.44134007     -0.98932528     -2.97548257
H      -3.40868952      0.57663809     -2.16058086
H      -4.85793783     -0.31988869     -0.33635022
H      -5.00007820     -1.85515865     -1.18524471
H      -3.40375324     -2.13048037      0.57817733
H      -2.54443744     -2.23711237     -0.95440355
H      -1.72967616      0.10498461     -0.68271389
H      -2.67362858      0.27598210      0.79986382
H      -1.34197229     -1.56664472      1.85210439
H      -0.42211380     -1.74967783      0.35600563
H      -0.56616473      0.82554915      2.01112886
H       0.41364022      0.60030498      0.57353987
H       1.73285546      0.42157881      2.65993142
H       0.69972705     -0.86649987      3.24781877
H       2.83588472     -1.71961094      2.43676451
H       1.50532685     -2.41526062      1.52129668
H       1.98330075     -0.87366063     -0.37849305
H       3.42698756     -1.81451635      0.07556464
H       5.66014505      1.73429677      0.48228345
H       4.45320376      3.93558538      0.80790223
H       3.02098953      3.25382120      0.04359807
H       3.57832158      2.60407029      1.59551110
H       5.36905569      1.95122405     -1.97282330
