52
COc1ccc(C2(c3cccc(-c4cncnc4)c3)N=C(N)C(C(C)C)=N2)cc1
C      -3.29757903      5.35609978      1.04110525
O      -3.36659116      4.12990310      1.75736322
C      -2.65100888      3.07972461      1.25152441
C      -1.88832184      3.09140277      0.08543444
C      -1.20273210      1.93903292     -0.31958995
C      -1.26859812      0.74893071      0.42675920
C      -0.48899426     -0.50709088     -0.01360514
C       0.95350590     -0.43650779      0.52822178
C       1.26287230     -0.90157890      1.81636308
C       2.56153519     -0.81431896      2.31472668
C       3.57420818     -0.25325711      1.53577874
C       3.30902828      0.23399881      0.24643697
C       4.37038802      0.82745350     -0.57412564
C       4.58466780      0.48644012     -1.90028472
N       5.55194090      1.01307404     -2.68466446
C       6.33913819      1.92503252     -2.09710916
N       6.24439902      2.34609804     -0.82810157
C       5.25440254      1.78309787     -0.09944882
C       1.99056260      0.13595875     -0.23577305
N      -0.47549873     -0.58954666     -1.51480916
C      -1.04785032     -1.70713467     -1.79625986
N      -1.25866734     -2.15734867     -3.06399111
C      -1.44927120     -2.41971690     -0.55329144
C      -2.15508509     -3.74477670     -0.59257268
C      -3.66077463     -3.51095426     -0.65060105
C      -1.78184490     -4.59681407      0.61750677
N      -1.16481081     -1.74237953      0.50635277
C      -2.03363071      0.75774218      1.60446821
C      -2.71873393      1.90835044      2.00652432
H      -3.90540302      6.09111711      1.57754963
H      -3.71612562      5.24935702      0.03488396
H      -2.27115494      5.73602613      1.00505023
H      -1.80025416      3.97757317     -0.53340920
H      -0.60830834      1.97536400     -1.23059751
H       0.48437288     -1.33599254      2.44080750
H       2.78400453     -1.18484055      3.31211463
H       4.58115480     -0.21141494      1.94668337
H       3.96631698     -0.25973135     -2.39392777
H       7.12432522      2.36224098     -2.70379797
H       5.18717208      2.15148175      0.92143576
H       1.75335931      0.52674513     -1.22498090
H      -1.12485722     -1.42865879     -3.75905445
H      -2.09684549     -2.70235820     -3.22694659
H      -1.83898810     -4.28254696     -1.49336111
H      -3.93244160     -2.91291693     -1.52710361
H      -4.01509878     -2.97180057      0.23524988
H      -4.20100644     -4.46145250     -0.70996275
H      -0.69634502     -4.73205730      0.67786543
H      -2.11040777     -4.13435073      1.55496086
H      -2.24333213     -5.58763060      0.55085707
H      -2.10025512     -0.13525942      2.22224042
H      -3.30653793      1.89019101      2.92078047
