36
COc1ccc(C(=O)CSc2cccc(OC)c2)cc1
C       5.36283186      1.04517729     -1.60149559
O       4.25449323      1.77300332     -1.08788839
C       3.32443919      1.06890127     -0.37557806
C       3.36342567     -0.29863846     -0.09958892
C       2.33982025     -0.89994061      0.64532207
C       1.26697586     -0.13379463      1.11421916
C       0.15506293     -0.72803073      1.90873378
O      -0.44349648     -0.00520201      2.70463241
C      -0.16237588     -2.20018573      1.70350929
S      -1.94668493     -2.54801125      1.84362511
C      -2.51600516     -1.68452075      0.38895750
C      -2.57784687     -2.34720672     -0.83912819
C      -3.00517737     -1.66503518     -1.97699574
C      -3.37053364     -0.32157431     -1.88503590
C      -3.31991411      0.34853695     -0.66018075
O      -3.70052933      1.66174358     -0.70943904
C      -3.62421602      2.39582570      0.50741731
C      -2.90064794     -0.34076280      0.47830685
C       1.23526502      1.23891030      0.84854419
C       2.25754979      1.83200308      0.10417975
H       5.03634681      0.27738410     -2.31068991
H       5.95751267      0.60912541     -0.79203216
H       6.00270400      1.74838674     -2.14321212
H       4.17966333     -0.92542628     -0.44454661
H       2.41571648     -1.96227017      0.85941600
H       0.16740105     -2.54402472      0.71934980
H       0.36820682     -2.77298979      2.47009597
H      -2.29992019     -3.39509551     -0.91813853
H      -3.05681347     -2.17691515     -2.93419878
H      -3.70176894      0.20952642     -2.77439185
H      -3.93870175      3.42271971      0.29761254
H      -2.59613599      2.43299897      0.88312219
H      -4.30720128      1.98571063      1.25861947
H      -2.85633220      0.14727214      1.44762591
H       0.41466128      1.85291677      1.21453918
H       2.22222533      2.89948242     -0.10200345
