39
CC(C)C1OC2(CCCC2)OCC1(C)C
C      -1.92464095      1.90698514      1.82714817
C      -2.08040100      1.10427469      0.52410053
C      -2.20921997      2.10997460     -0.62719789
C      -0.89205586      0.10957559      0.38860712
O       0.22422096      0.81569762     -0.15880245
C       1.41485175      0.04750573     -0.21301732
C       2.08358482     -0.13666048      1.15358397
C       3.54582743     -0.42103409      0.82415490
C       3.80879602      0.25099906     -0.52272519
C       2.47877024      0.86538688     -0.95064794
O       1.24853291     -1.17401332     -0.92707281
C       0.18104201     -1.97087002     -0.43166748
C      -1.14964499     -1.19235832     -0.42161089
C      -1.56744375     -0.92305023     -1.87751525
C      -2.22125519     -2.07062991      0.24707071
H      -1.91287770      1.23999736      2.69587945
H      -2.76008909      2.60305167      1.95907786
H      -0.99524470      2.48679514      1.83075358
H      -3.02021049      0.54931642      0.60855387
H      -3.08637136      2.74938775     -0.47535666
H      -2.33421651      1.62330153     -1.59499784
H      -1.33541389      2.76744513     -0.69112192
H      -0.62125611     -0.19970424      1.40817571
H       1.65852741     -0.94629252      1.75260988
H       1.99933995      0.78336909      1.74568575
H       4.21218953     -0.04379149      1.60623346
H       3.71520328     -1.50077095      0.73944218
H       4.59138790      1.01311225     -0.45119277
H       4.14236239     -0.49475808     -1.25337404
H       2.35745314      0.82944530     -2.03870269
H       2.43653547      1.91982736     -0.64957084
H       0.43596808     -2.34362263      0.56713143
H       0.10834159     -2.85487931     -1.07602434
H      -2.58214439     -0.51666454     -1.93234169
H      -0.88777276     -0.22562146     -2.37792041
H      -1.57184879     -1.85106408     -2.46154960
H      -3.21279653     -1.60940299      0.20544352
H      -1.98106838     -2.25607773      1.29988389
H      -2.29696245     -3.04418193     -0.25112596
