26
CCC(CC)COC(C)=O
C      -2.13066720     -1.03951463      1.73332476
C      -1.37211409      0.25345581      1.46886213
C      -1.06481722      0.50481345     -0.02512238
C      -0.41855286      1.90246239     -0.16121608
C      -0.17993380      2.33389821     -1.60136937
C      -0.19341464     -0.60589396     -0.63897544
O       1.06792860     -0.66450718      0.03959230
C       1.91467427     -1.61970400     -0.43138407
C       3.19585428     -1.59397219      0.34410830
O       1.67725346     -2.39063266     -1.35015804
H      -3.03606449     -1.09732282      1.12122033
H      -1.51278754     -1.91819397      1.52743762
H      -2.42968735     -1.08912094      2.78544425
H      -0.44505879      0.25148173      2.05486836
H      -1.98007668      1.08342610      1.85071859
H      -2.01846157      0.51809008     -0.56955374
H       0.53109980      1.93957320      0.38616083
H      -1.07701751      2.64510450      0.30696186
H      -1.09719014      2.25556926     -2.19319946
H       0.59698233      1.73023479     -2.07910764
H       0.15273227      3.37668000     -1.62910007
H      -0.02590568     -0.41280282     -1.70458930
H      -0.69800875     -1.57507875     -0.55565532
H       3.67901944     -0.62044787      0.22927205
H       3.86884914     -2.36485487     -0.04206662
H       2.99536470     -1.80274285      1.39796020
