27
Cc1cc(C)c(C)c(C)c1C
C      -1.94355546     -2.44395476      0.06547210
C      -0.91771435     -1.34181360      0.04349655
C       0.43543240     -1.69126629      0.14069561
C       1.44953732     -0.72476523      0.13458060
C       2.87787743     -1.18719835      0.25098143
C       1.10591243      0.63963989      0.03687921
C       2.18496005      1.69753756      0.04708621
C      -0.25838754      1.00864522     -0.11764535
C      -0.63076739      2.46418015     -0.30006416
C      -1.27679093      0.01856391     -0.05480060
C      -2.73217665      0.41583314     -0.14211817
H      -2.50979301     -2.41488423      1.00167654
H      -2.62749805     -2.34943452     -0.78418580
H      -1.47608522     -3.43172254     -0.01052050
H       0.70626216     -2.74275666      0.22520662
H       3.48808015     -0.75534297     -0.54888447
H       3.28906237     -0.90335141      1.22479348
H       2.95808600     -2.27591058      0.16008755
H       2.42290352      1.99787177     -0.97801748
H       1.86855131      2.57489634      0.62076459
H       3.10389233      1.35269236      0.52912567
H      -0.79066181      2.93362736      0.67528911
H       0.14353105      3.01604790     -0.84169942
H      -1.53458562      2.57863098     -0.90626618
H      -3.01186084      0.58124283     -1.18713990
H      -2.92582713      1.32518924      0.43628425
H      -3.39838457     -0.34219749      0.27892249
