50
CCN(CCO)c1ccc(N=Nc2sc3cc(OC)ccc3[n+]2C)cc1.[Cl-]
C      -5.80940212      0.44293971      2.29724118
C      -5.96245114     -0.59822338      1.19676391
N      -5.21712600     -0.20522172     -0.01162584
C      -6.03016098     -0.09142497     -1.24806609
C      -6.72755250      1.27498213     -1.30504237
O      -5.77738202      2.32926143     -1.16076105
C      -3.83104357     -0.31083792     -0.09307285
C      -3.10557273      0.29370936     -1.13506616
C      -1.70780725      0.21775194     -1.22125938
C      -0.97349100     -0.45725182     -0.24847160
N       0.42920424     -0.56096596     -0.31769004
N       0.95472503      0.56442214     -0.16735601
C       2.30373666      0.57083208     -0.27891126
S       3.11096785      1.49773776     -1.47001018
C       4.65298239      0.92781246     -0.95971883
C       5.91921768      1.22200012     -1.48688738
C       7.04658974      0.63185832     -0.90366687
O       8.22619946      0.98480305     -1.49541989
C       9.42759712      0.46358334     -0.93672372
C       6.90257231     -0.23313288      0.17832955
C       5.63319348     -0.52485477      0.70515401
C       4.49538245      0.07090955      0.12606158
N       3.16638726     -0.07142047      0.49192642
C       2.73728278     -0.88185717      1.62172031
C      -1.66510819     -1.07145036      0.79200867
C      -3.06461032     -0.98921445      0.86869006
Cl      0.00000000      0.00000000      0.00000000
H      -6.40140842      0.15624977      3.17215303
H      -6.15889784      1.42337629      1.95733554
H      -4.76931961      0.55305016      2.61699496
H      -5.66890486     -1.59447537      1.54478809
H      -7.03321576     -0.67736335      0.96930093
H      -6.78418255     -0.88798343     -1.27374974
H      -5.42703594     -0.23474857     -2.15097259
H      -7.46336519      1.37445124     -0.50056532
H      -7.24551847      1.40219805     -2.26020388
H      -5.22264824      2.05294978     -0.40411826
H      -3.61390058      0.87160336     -1.90415694
H      -1.20522925      0.70139935     -2.05519206
H       6.03313941      1.89518107     -2.33491410
H       9.55422657      0.79417224      0.09985299
H      10.26576031      0.85810065     -1.51916229
H       9.45391689     -0.62881587     -1.00948740
H       7.76669674     -0.70575829      0.64061809
H       5.56915893     -1.20998461      1.54651306
H       3.48352917     -0.85488443      2.42106530
H       2.59718063     -1.91468754      1.28906736
H       1.80499919     -0.50305057      2.05112577
H      -1.12953080     -1.62263927      1.55914390
H      -3.53978099     -1.49125655      1.70641737
