54
CC(=O)C1CCC2C3CCC4=CC(=O)CC(O)C4(C)C3CCC12C
C       5.04088017     -0.59425813     -1.88847262
C       4.18767824     -1.53454054     -1.07805132
O       4.12750648     -2.72746918     -1.38728143
C       3.40103810     -0.99956231      0.12122803
C       3.60959705      0.47948204      0.46975010
C       2.30536142      0.96318981      1.10588091
C       1.37105928     -0.25663264      1.16215733
C      -0.14476141      0.06087989      1.13525916
C      -0.54139901      1.04427357      2.26406477
C      -1.64432887      2.02885925      1.88141937
C      -2.69190516      1.33882039      1.05837893
C      -3.93888862      1.17300270      1.52986367
C      -4.96713918      0.43806716      0.76047434
O      -6.12791558      0.43163442      1.16857120
C      -4.58173073     -0.24215537     -0.52957878
C      -3.07541760     -0.47649284     -0.63952965
O      -2.71899458     -1.58010006      0.19893245
C      -2.22136195      0.78661485     -0.28959212
C      -2.48847251      1.87819024     -1.36012609
C      -0.65674925      0.51964587     -0.25565023
C      -0.17619980     -0.42261671     -1.37628258
C       1.33676329     -0.62192988     -1.35854749
C       1.86066699     -1.15138319     -0.00360915
C       1.42551092     -2.61195023      0.21257326
H       4.40886660      0.14302869     -2.38982006
H       5.58039023     -1.16138163     -2.65363525
H       5.77733923     -0.10676019     -1.24463036
H       3.75723136     -1.58085380      0.98477536
H       3.83182739      1.10604753     -0.39975793
H       4.45168783      0.59662762      1.16176986
H       2.49707978      1.36191070      2.10787531
H       1.88524764      1.77980762      0.50856453
H       1.57991669     -0.77189281      2.11232716
H      -0.65161782     -0.88480973      1.36544374
H       0.31303474      1.62754764      2.62142427
H      -0.86866976      0.45378261      3.13146238
H      -2.06537769      2.47145935      2.79226376
H      -1.22250433      2.86296007      1.30688336
H      -4.25959533      1.55561515      2.49264961
H      -4.94183891      0.37971480     -1.35589747
H      -5.10987414     -1.20236643     -0.56352712
H      -2.86212527     -0.78977337     -1.66875744
H      -3.20322328     -2.36674886     -0.10818128
H      -2.24345371      1.51777879     -2.36445879
H      -1.88721105      2.77620669     -1.17543929
H      -3.53472025      2.20184427     -1.37377488
H      -0.16621788      1.48498802     -0.45035670
H      -0.45989889     -0.01351955     -2.35275746
H      -0.65469916     -1.40314178     -1.30041825
H       1.60955310     -1.31358216     -2.16494156
H       1.80882857      0.33495851     -1.61193036
H       0.33953327     -2.70815829      0.30441148
H       1.86268739     -3.02356502      1.12928406
H       1.73700600     -3.25129354     -0.61960475
