21
O=C(O)Cn1c(=O)sc2cccc(Cl)c21
O       3.76707478     -0.77924540      1.00816843
C       2.75405298     -0.47325928      0.39622266
O       2.28153459     -1.29026065     -0.56692549
C       1.95194482      0.80111686      0.61196131
N       0.76572383      0.91313660     -0.21496738
C       0.85873600      1.59393654     -1.42296438
O       1.84192896      2.16048201     -1.87434031
S      -0.68852441      1.55378246     -2.26600866
C      -1.40045558      0.54644701     -0.99687656
C      -2.69977864      0.05441199     -0.99936310
C      -3.10888516     -0.74432254      0.06162870
C      -2.21408472     -1.04009577      1.09548251
C      -0.90058912     -0.53838942      1.08884678
Cl      0.08908269     -1.01347181      2.41728225
C      -0.48500198      0.27664691      0.03187579
H       2.92292445     -2.03143031     -0.58636923
H       2.62911168      1.62801172      0.36626726
H       1.68838996      0.91954871      1.66393509
H      -3.38234604      0.28323161     -1.81301443
H      -4.11996533     -1.14482741      0.08576615
H      -2.55087376     -1.67544985      1.91339260
