28
Nc1c2ccccc2nc2cccc(C(F)(F)F)c12
N      -0.34053749     -2.19820335      0.19871382
C       0.06130794     -0.83820494      0.19323927
C       1.44135447     -0.51321842      0.04797814
C       2.49882020     -1.46020376     -0.00665753
C       3.82966684     -1.06149917     -0.13357813
C       4.13131998      0.28837411     -0.21098328
C       3.09845660      1.22509154     -0.16824379
C       1.76667824      0.84880302     -0.04658817
N       0.84461276      1.81565364     -0.03792710
C      -0.45282472      1.50126205      0.04060596
C      -1.33418840      2.56976459      0.00979995
C      -2.71074713      2.39527470      0.07292440
C      -3.22449379      1.11334928      0.16937596
C      -2.36765679     -0.00672991      0.20572292
C      -3.01775133     -1.37172290      0.31518394
F      -2.72265400     -2.04149669      1.46307370
F      -4.38751261     -1.29671872      0.31132038
F      -2.73067199     -2.20074029     -0.73168372
C      -0.94244167      0.18042757      0.14231921
H      -0.59434472     -2.51573097     -0.73796158
H       0.34277918     -2.82835229      0.60553445
H       2.29834541     -2.52602715      0.04650747
H       4.62298202     -1.80361853     -0.17082444
H       5.16190245      0.61868694     -0.30880518
H       3.33850614      2.28407870     -0.23735248
H      -0.93218572      3.57850869     -0.06779503
H      -3.37289966      3.25668490      0.04662191
H      -4.30582222      0.98650736      0.21942709
