14
NC(=O)C(=NO)C(N)=O
N      -2.00588800     -0.78919366      1.45706276
C      -0.73185993     -1.06825794      1.03713342
O      -0.14200015     -2.09885071      1.31420498
C      -0.09969978     -0.01724181      0.14149681
N      -0.89606737      0.60965834     -0.69008273
O      -0.21735350      1.56547061     -1.45689739
C       1.38709325      0.26006398      0.24232006
N       2.11544030      0.02347831     -0.89456009
O       1.86967587      0.68788015      1.27840052
H      -2.51461103     -1.51135257      1.94771751
H      -2.51408422     -0.01672520      1.04380883
H      -0.94016912      2.00284781     -1.94831345
H       1.62426936     -0.01746339     -1.77918236
H       3.06525430      0.36968607     -0.89708861
