19
CCc1ccccc1O
C      -2.46906194     -0.41356655      0.55873871
C      -1.59020299     -0.44445992     -0.68271906
C      -0.13640713     -0.21810280     -0.34980787
C       0.70927513     -1.31718152     -0.13637532
C       2.05424725     -1.12818776      0.18731868
C       2.56888992      0.16129319      0.30622585
C       1.73958911      1.26415809      0.10422878
C       0.39639531      1.06932701     -0.21885888
O      -0.42395030      2.14549696     -0.41142805
H      -2.16956312     -1.18572467      1.27554134
H      -3.51431138     -0.59081483      0.28637134
H      -2.41107839      0.55535589      1.06577009
H      -1.93205006      0.30757185     -1.40379630
H      -1.70650468     -1.41171933     -1.18727167
H       0.32154959     -2.32995730     -0.22088197
H       2.69895204     -1.98844910      0.34794782
H       3.61593050      0.30636891      0.55866226
H       2.15488677      2.26190611      0.20387742
H       0.09341436      2.95668576     -0.28354316
