65
C[C@@H](NC(=O)C1CCCCN1C)c1ccc(Nc2ncc3cc(-c4ccncc4)ccc3n2)cc1
C       3.11909955     -3.60532063      0.78227764
C       3.35198681     -2.25140533      1.45988504
N       4.33277683     -1.47283589      0.73320064
C       5.68261065     -1.74015087      0.77593259
O       6.18837838     -2.58233978      1.51297285
C       6.52828699     -0.82637860     -0.13846211
C       7.00198311      0.39633877      0.67411932
C       6.04171871      1.57477201      0.55737841
C       5.79151610      1.95191578     -0.90364239
C       6.15206137      0.83692342     -1.88924076
N       5.73689544     -0.46349382     -1.35712248
C       5.85550884     -1.50828087     -2.37772117
C       2.09902174     -1.41456811      1.65030000
C       2.05508783     -0.48614657      2.69990618
C       0.92664014      0.31707382      2.90382035
C      -0.19462090      0.23075437      2.06612966
N      -1.29897510      1.04383470      2.33812283
C      -2.57818311      1.15082742      1.79910101
N      -3.34877676      2.09405791      2.36364463
C      -4.60016604      2.22945290      1.88413121
C      -5.12317796      1.45806690      0.86172023
C      -6.43628248      1.59510606      0.36024224
C      -6.89620747      0.77462574     -0.67948789
C      -8.26220329      0.90150292     -1.20916234
C      -9.37676858      0.83333000     -0.36421757
C     -10.64573900      0.93938430     -0.91309966
N     -10.88151026      1.11058751     -2.23069922
C      -9.79988176      1.18400960     -3.03220346
C      -8.49383121      1.08405607     -2.57784317
C      -6.00765070     -0.17911753     -1.19448214
C      -4.70793273     -0.30241181     -0.68440512
C      -4.24662868      0.50800555      0.34338164
N      -2.99778626      0.35759873      0.80172767
C      -0.13771921     -0.68360994      1.01167945
C       0.99164271     -1.48804675      0.79852222
H       2.82631733     -3.49136934     -0.26707130
H       2.34041109     -4.17660638      1.29744983
H       4.03491054     -4.20703412      0.79094794
H       3.76872290     -2.46905020      2.45285271
H       4.03632092     -0.89642308     -0.05095963
H       7.41867175     -1.40332555     -0.42393076
H       7.13469553      0.13827701      1.73198752
H       7.98534560      0.71318810      0.30100014
H       6.43252314      2.44006894      1.10542012
H       5.08685494      1.31657565      1.03252456
H       4.73533054      2.22691700     -1.01915560
H       6.37405189      2.84610947     -1.15870544
H       5.64249758      1.04875922     -2.83811933
H       7.23067149      0.84787218     -2.09908562
H       5.22056061     -1.27329563     -3.24007231
H       6.88645790     -1.62495472     -2.73157404
H       5.50994097     -2.47348541     -1.99005383
H       2.90678499     -0.38210027      3.37026523
H       0.93514782      1.01597037      3.73662358
H      -1.20560112      1.70786509      3.09219051
H      -5.18825088      3.00451244      2.36766475
H      -7.09254905      2.35670861      0.77967001
H      -9.26668814      0.68059637      0.70489920
H     -11.53115407      0.87578745     -0.28888841
H     -10.01550362      1.32360312     -4.08862969
H      -7.67364599      1.15308927     -3.28628182
H      -6.32136390     -0.85094045     -1.99279301
H      -4.04119404     -1.05523588     -1.09982963
H      -0.96945127     -0.79025021      0.32166864
H       0.97801088     -2.16994703     -0.04771915
