21
CCC1(C)CC(=O)NC1=O
C       2.13674970     -1.05522082      0.20451252
C       0.95511994     -0.65039000     -0.66935332
C      -0.04332174      0.33254070     -0.01336312
C       0.62675210      1.60504408      0.50214932
C      -1.17600471      0.66127950     -1.00928515
C      -2.30984397     -0.22644788     -0.57940564
O      -3.38392555     -0.32899572     -1.14770831
N      -1.97640209     -0.83610959      0.58329956
C      -0.81054552     -0.36810154      1.09441127
O      -0.45251230     -0.50468522      2.25229162
H       1.80768600     -1.51557895      1.14024915
H       2.77457139     -0.19872771      0.44084091
H       2.75583436     -1.78679673     -0.32547077
H       0.43149339     -1.56678175     -0.97198237
H       1.35284777     -0.20188439     -1.58885797
H       1.15699285      2.12411527     -0.30330064
H      -0.11223897      2.29828318      0.92100117
H       1.34154140      1.39424384      1.30438555
H      -0.90666656      0.44940201     -2.04817738
H      -1.51072824      1.70115074     -0.92770358
H      -2.65739924     -1.32633901      1.14146716
