31
CC(O)Cn1cnc2c1c(=O)n(C)c(=O)n2C
C       3.93022157     -1.27537192      0.81891455
C       2.86581052     -0.19545847      0.68033938
O       3.49713562      1.07870605      0.83271392
C       2.19696307     -0.25809694     -0.69544665
N       0.97350478      0.52347381     -0.74679014
C       0.85957785      1.80078709     -1.23305980
N      -0.38835098      2.22491604     -1.19980887
C      -1.08419857      1.18752000     -0.65827221
C      -0.27774280      0.13056194     -0.36190916
C      -0.75607322     -1.06820717      0.23301076
O      -0.01409243     -1.99502270      0.54640864
N      -2.13929505     -1.06085550      0.43276722
C      -2.74701840     -2.23271230      1.03207681
C      -3.00222539      0.02180397      0.16209272
O      -4.20610728     -0.04519205      0.42793694
N      -2.43514560      1.16107164     -0.40910570
C      -3.25433375      2.31761365     -0.72267570
H       4.71186212     -1.15487426      0.06070193
H       3.49674406     -2.27538782      0.72200451
H       4.42427176     -1.20386302      1.79390007
H       2.12646981     -0.30138119      1.48216025
H       3.84721411      1.12499852      1.74041731
H       1.93432564     -1.28440420     -0.97334169
H       2.86247598      0.13750402     -1.47238958
H       1.71056126      2.36633248     -1.59256972
H      -3.62218772     -2.53129777      0.44576543
H      -2.05656355     -3.07812269      1.08765924
H      -3.07825376     -1.97524618      2.04338213
H      -4.31021261      2.14124078     -0.50144807
H      -3.15539890      2.54924647     -1.78795131
H      -2.90993815      3.16971772     -0.12813521
