23
NNP(=S)(NN)c1ccccc1
N      -2.77459587     -1.25026940      1.70542241
N      -1.37134356     -1.14863852      1.26978041
P      -1.10922923     -0.44506617     -0.24141531
S      -1.87991918     -1.51385158     -1.69697973
N      -1.85334676      1.04856333     -0.02055427
N      -2.19163669      1.83879120     -1.21066504
C       0.65474469     -0.08433531     -0.23834362
C       1.52238337     -0.65329914     -1.18394256
C       2.88990799     -0.36911577     -1.16061078
C       3.41001183      0.48601582     -0.19180256
C       2.56513128      1.05860436      0.75530065
C       1.19879236      0.77473665      0.73259642
H      -2.84087527     -1.64877029      2.64650397
H      -3.30638290     -1.87731199      1.08843929
H      -0.89604731     -2.05121584      1.32047508
H      -2.67534294      0.89505831      0.57035172
H      -2.68336990      1.25487754     -1.89984202
H      -1.34079692      2.15769588     -1.68445113
H       1.14263046     -1.32378584     -1.95205278
H       3.54967640     -0.81510586     -1.90113369
H       4.47413012      0.70764918     -0.17609391
H       2.96807162      1.72823895      1.51108738
H       0.54740642      1.23053446      1.47726671
