27
CCCOC(=O)c1cc(O)c(O)c(O)c1
C       3.20919858      1.32642444      2.25293435
C       3.69551768      0.35822951      1.18372229
C       2.90653202      0.48471907     -0.11546766
O       1.53999217      0.13008560      0.13172159
C       0.73306827      0.21794915     -0.95233121
O       1.07371866      0.55587002     -2.07529352
C      -0.66310082     -0.15814147     -0.60422442
C      -1.62486565     -0.12931911     -1.63214391
C      -2.94223362     -0.47320447     -1.34891086
O      -3.91705235     -0.46266186     -2.30680689
C      -3.30535853     -0.84274931     -0.05957684
O      -4.59873593     -1.18303744      0.22935240
C      -2.35726659     -0.87098653      0.95465001
O      -2.72055622     -1.23433233      2.21890087
C      -1.03541516     -0.53170430      0.69702561
H       2.16691582      1.13071330      2.52373739
H       3.81646106      1.22485971      3.15796472
H       3.28617389      2.36213965      1.90706950
H       3.60159889     -0.66261488      1.57199488
H       4.75657274      0.54360515      0.98394183
H       3.32712058     -0.19867472     -0.86224452
H       2.96122815      1.51261391     -0.49302396
H      -1.32900319      0.16128961     -2.63698840
H      -3.51683112     -0.18599390     -3.15062981
H      -5.07006595     -1.08940629     -0.62431036
H      -3.67909083     -1.42394469      2.15796073
H      -0.31452254     -0.56172784      1.50903789
