28
CCOCCOC(C)(C)C
C       4.66702659     -1.22369764     -0.83719811
C       3.73371792     -0.27563294     -0.11093099
O       2.39134676     -0.62091601     -0.44503335
C       1.45285664      0.23504353      0.20670309
C       0.03550602     -0.17580644     -0.18340768
O      -0.89050540      0.68614465      0.47367882
C      -2.28553390      0.45240112      0.22737357
C      -2.63879080      0.64928096     -1.25157855
C      -2.72008288     -0.93552778      0.71283542
C      -3.01928257      1.51698998      1.05587545
H       5.71159747     -0.99425256     -0.60888134
H       4.46216920     -2.26074235     -0.55140325
H       4.51878439     -1.15653648     -1.92007492
H       3.93804751      0.75590447     -0.41810318
H       3.88057430     -0.36482307      0.97103653
H       1.57322344      0.16553896      1.29453270
H       1.63025644      1.27755207     -0.08380959
H      -0.12667410     -1.21838205      0.10795948
H      -0.06962695     -0.10609226     -1.27071972
H      -2.23657196      1.59733785     -1.62575582
H      -3.72296318      0.64412399     -1.40795324
H      -2.21496914     -0.14430117     -1.87592932
H      -2.29632724     -1.73073162      0.09050803
H      -2.37576070     -1.11582652      1.73730312
H      -3.80962991     -1.04550116      0.68635830
H      -4.10637448      1.43978104      0.94860393
H      -2.76926197      1.42344300      2.11920467
H      -2.71275151      2.52522843      0.75351014
