21
CCC(Br)(CC)C(N)=O
C      -1.14861651      1.97006129      0.03782845
C      -0.90817910      0.59602868     -0.58149871
C      -0.24654736     -0.45210439      0.33710384
Br     -1.56286771     -0.96212795      1.75477815
C       1.02142626      0.02726423      1.07245826
C       2.11936916      0.56673263      0.15986806
C      -0.00122724     -1.77875264     -0.41734465
N      -1.06993701     -2.31822464     -1.08349539
O       1.07993509     -2.35932794     -0.46417823
H      -1.80963119      1.91491303      0.90711465
H      -1.62711836      2.62626308     -0.69707742
H      -0.21602749      2.45073024      0.34422278
H      -0.28730666      0.72856114     -1.47711635
H      -1.87427735      0.22712431     -0.94984662
H       0.76832689      0.80904139      1.79997919
H       1.44616232     -0.79758421      1.66046412
H       2.99278276      0.84726003      0.75791679
H       2.44425849     -0.17881599     -0.57082878
H       1.79504715      1.45770485     -0.38431534
H      -0.91000956     -3.24447032     -1.46152201
H      -2.00556257     -2.13027682     -0.74451077
