56
Cc1cccc(CCN2C(=O)c3ccccc3C2C(=O)NCc2ccc(OC(F)(F)F)cc2)n1
C      -1.69376000      3.53185751      2.89281897
C      -2.47495604      3.05558847      1.70400914
C      -3.36652343      3.91165852      1.06564811
C      -4.07364969      3.44026820     -0.03458932
C      -3.87340014      2.13360064     -0.46590922
C      -2.96713183      1.33406792      0.22251199
C      -2.72031145     -0.08927872     -0.19999684
C      -1.28669515     -0.26771934     -0.69860981
N      -0.99976415     -1.64244270     -1.09154068
C      -1.41382399     -2.17846715     -2.29930643
O      -1.85518174     -1.58898124     -3.26547714
C      -1.26373127     -3.63318674     -2.19343685
C      -1.52661826     -4.60050637     -3.14411415
C      -1.32385560     -5.93125166     -2.77836952
C      -0.87262520     -6.25657670     -1.48699706
C      -0.61909299     -5.25852199     -0.53903312
C      -0.81836177     -3.93892707     -0.90838216
C      -0.64886571     -2.67929491     -0.10900577
C       0.78132947     -2.52840634      0.44626787
O       1.13616156     -3.07620424      1.48725188
N       1.64279746     -1.81657896     -0.36000433
C       2.96458764     -1.42356390      0.06776896
C       3.03729319      0.07599061      0.21950029
C       2.29018938      0.72180344      1.21807282
C       2.33083990      2.11091290      1.34833573
C       3.14300817      2.86033836      0.49981364
O       3.13765505      4.22026761      0.62550323
C       4.32530933      4.68317066      1.25782788
F       4.19760643      6.00934882      1.48830817
F       4.52601485      4.06968777      2.44452828
F       5.40487770      4.49957994      0.46717631
C       3.87428308      2.23715568     -0.50926567
C       3.82643631      0.84753657     -0.64481092
N      -2.27142868      1.77857157      1.29896809
H      -1.01152960      2.75198858      3.24885537
H      -2.37268578      3.79254499      3.71041954
H      -1.09709388      4.41111779      2.62586607
H      -3.51055617      4.92916675      1.41500472
H      -4.77655087      4.08630771     -0.55245706
H      -4.41709863      1.75218051     -1.32383788
H      -3.43190458     -0.39100299     -0.97750214
H      -2.91047209     -0.74360211      0.65909075
H      -1.12360406      0.36990056     -1.57615481
H      -0.55849544      0.03004153      0.06197687
H      -1.88050878     -4.32957970     -4.13353035
H      -1.51791320     -6.72525491     -3.49683014
H      -0.72076422     -7.30006675     -1.22248558
H      -0.27118539     -5.51846512      0.45657525
H      -1.37084776     -2.63737775      0.71145806
H       1.24394170     -1.35192816     -1.16805308
H       3.66627694     -1.77157104     -0.70067941
H       3.23895233     -1.90504155      1.01247993
H       1.66057988      0.14334622      1.89253924
H       1.73126644      2.59877020      2.11162593
H       4.47678583      2.82311827     -1.19771153
H       4.40479489      0.37390983     -1.43490423
