14
Nc1c[nH]c(=O)[nH]c1=O
N       2.34152186      0.04199061      0.09124099
C       0.96228812     -0.05865076      0.07456923
C       0.26138889     -1.19720384     -0.00451652
N      -1.10598100     -1.20948573     -0.02281342
C      -1.87815148     -0.08420785      0.05615466
O      -3.10271576     -0.13502122      0.02226954
N      -1.19818319      1.09297509      0.16371458
C       0.16089617      1.22141356      0.11474449
O       0.71935254      2.31598655      0.07348495
H       2.63635732      0.99220326     -0.15020561
H       2.81114906     -0.66753080     -0.46238762
H       0.74698797     -2.16632593     -0.04859376
H      -1.61155708     -2.08581252     -0.08650285
H      -1.74335342      1.93966958      0.17884136
