46
COc1cc(/C=C/CO)ccc1OC1OC(CO)C(O)C(O)C1O
C       1.27342305      3.24733625     -0.65256059
O       0.51471279      2.18344941     -0.09168865
C       1.19558945      1.05409884      0.28119543
C       2.58362280      0.89018994      0.21529314
C       3.18924650     -0.30631308      0.63693915
C       4.64698119     -0.49898096      0.61076062
C       5.45755831     -0.02655130     -0.35040699
C       6.93332990     -0.24074523     -0.37637662
O       7.26185454     -0.81558520     -1.62959079
C       2.38793207     -1.32988845      1.15858805
C       1.00385058     -1.17791335      1.23075151
C       0.41440824     -0.00074800      0.77589117
O      -0.94657006      0.10474959      0.90421915
C      -1.60431722      0.04636957     -0.36936286
O      -2.25166799     -1.22615134     -0.54780152
C      -3.24550867     -1.51214670      0.45167020
C      -3.77267622     -2.93835623      0.20777614
O      -4.40264619     -3.10319911     -1.06131132
C      -4.36579321     -0.45877660      0.42022273
O      -5.10419286     -0.54516142     -0.81657515
C      -3.77924524      0.95383224      0.54268452
O      -4.83769030      1.90096887      0.30321401
C      -2.64091127      1.18188266     -0.46288101
O      -3.21597598      1.27122520     -1.78313486
H       1.98021341      3.65511096      0.07758047
H       0.57681479      4.04657348     -0.92355984
H       1.78556142      2.92895229     -1.56658913
H       3.21897619      1.69081786     -0.14819941
H       5.05952057     -1.09007029      1.42570827
H       5.05519661      0.53303238     -1.19070102
H       7.26977797     -0.91169782      0.42040863
H       7.45379401      0.71699700     -0.28150925
H       8.21738832     -0.99127134     -1.61609158
H       2.83463659     -2.25928235      1.50560147
H       0.38792840     -1.97760736      1.63166598
H      -0.90841301      0.14029530     -1.21351577
H      -2.76336059     -1.50412059      1.43699625
H      -4.49750930     -3.21307507      0.98070361
H      -2.94413914     -3.65295816      0.24417849
H      -4.80466544     -2.23898761     -1.29201747
H      -5.08857737     -0.64107125      1.22360136
H      -5.73423937      0.20594164     -0.77865826
H      -3.41264410      1.10962977      1.56367140
H      -4.66314561      2.27601858     -0.58630512
H      -2.17837165      2.15362637     -0.26166923
H      -3.54005692      0.36956056     -1.99875220
