19
O=C(O)c1ccc([N+](=O)[O-])c([N+](=O)[O-])c1
O      -3.74850359      0.45741736      0.08718617
C      -2.82722024     -0.32842357      0.19417397
O      -3.03054482     -1.63054737      0.44978574
C      -1.38722854      0.00462086      0.06242307
C      -1.03893886      1.33289550     -0.23719283
C       0.30345388      1.70432229     -0.37066997
C       1.30156848      0.73557258     -0.20543661
N       2.68623153      1.16070357     -0.27166692
O       3.40884878      0.85671444      0.68429035
O       3.01980772      1.83792601     -1.25098443
C       0.95885815     -0.58537467      0.08060573
N       1.96807562     -1.62097061      0.17077185
O       1.93479502     -2.35220289      1.16710446
O       2.74799902     -1.72225116     -0.78310775
C      -0.38464828     -0.96226940      0.22103199
H      -4.00609859     -1.71790918      0.51499399
H      -1.81794487      2.08588935     -0.36317904
H       0.55618951      2.74084664     -0.59109081
H      -0.64469993     -1.99695976      0.44096104
