8
ClC(Br)C(Cl)Br
Cl      1.35078292      1.31854093      1.04306947
C       0.75193899      0.10990590     -0.11974397
Br      1.75596715     -1.55280372      0.13541619
C      -0.75069137     -0.15966760     -0.05291157
Cl     -1.36964956     -0.56638928      1.56665984
Br     -1.75162943      1.37994364     -0.73518948
H       1.04388230      0.45206908     -1.11775086
H      -1.03060100     -0.98159894     -0.71954961
