38
COC(=O)C1CCCN1C(=O)COC(=O)c1ccccc1
C      -4.81121060      0.65823375     -2.63344064
O      -4.08620796      1.02756771     -1.46049766
C      -3.46151542     -0.01925230     -0.84424382
O      -3.54900075     -1.19065816     -1.19508873
C      -2.70461795      0.48180504      0.39272535
C      -3.62118891      0.48630887      1.61535612
C      -3.42721338     -0.90959094      2.20420186
C      -1.95110810     -1.18834342      1.96254256
N      -1.62788987     -0.43648389      0.76316640
C      -0.43563772     -0.43831983      0.07336280
O      -0.25489680      0.30498604     -0.89346320
C       0.63571177     -1.42948930      0.54453453
O       1.93631578     -1.10949726      0.04991988
C       2.51751267     -0.05900767      0.68198041
O       2.06577970      0.52138133      1.65758176
C       3.81845730      0.28353315      0.04706999
C       4.62852587      1.24168746      0.67209735
C       5.85871929      1.59582115      0.11446154
C       6.28460357      0.99753754     -1.07068715
C       5.48228513      0.04711067     -1.70155760
C       4.25097313     -0.31029899     -1.14654366
H      -5.23756407      1.56649320     -3.06822304
H      -5.63048106     -0.02095381     -2.37787820
H      -4.14383769      0.20204723     -3.37142860
H      -2.28612951      1.47149889      0.17804192
H      -4.66973063      0.69446417      1.38231072
H      -3.27337407      1.23547991      2.33711433
H      -4.04181729     -1.63363426      1.65611458
H      -3.69776095     -0.96698000      3.26213841
H      -1.73678419     -2.25186061      1.82494647
H      -1.33560274     -0.79987062      2.78112896
H       0.65969528     -1.51143991      1.63613411
H       0.36954680     -2.41356365      0.14426551
H       4.30272165      1.71705158      1.59531716
H       6.48215579      2.34018909      0.60353152
H       7.24139581      1.27559550     -1.50608250
H       5.81293429     -0.41365104     -2.62926785
H       3.63623581     -1.04589662     -1.65944183
