69
CCCCCCCCCCCCCCCCCCCCCCO
C       9.25560784      0.34145084      2.93748757
C       9.24837058      0.90591988      1.52514139
C       8.97306713     -0.14575764      0.44809650
C       7.56591885     -0.74395997      0.53001213
C       7.30765439     -1.70652084     -0.63236223
C       5.95716453     -2.42282008     -0.54059415
C       4.75836950     -1.48164589     -0.68612857
C       3.44216186     -2.26373722     -0.69826667
C       2.20211070     -1.36439437     -0.73341403
C       2.07522326     -0.56034804     -2.03037336
C       0.73220285      0.16755558     -2.15879615
C       0.53965775      1.26614528     -1.11064821
C      -0.71050052      2.11985835     -1.34897553
C      -2.04462738      1.36467750     -1.36817768
C      -2.34800547      0.63186650     -0.05896561
C      -3.68301896     -0.11971213     -0.07785227
C      -4.90283883      0.80174105     -0.14739433
C      -6.20437431      0.00520642     -0.02704750
C      -7.42716368      0.92106750     -0.10247365
C      -8.72651187      0.12526403      0.03143741
C      -9.94813501      1.03818796     -0.04617875
C     -11.24543298      0.25298705      0.09457972
O     -12.35565948      1.13516101     -0.00256341
H       9.96467526     -0.48760328      3.02638953
H       9.55164142      1.11783810      3.65038282
H       8.26494181     -0.01682014      3.23197443
H      10.22733585      1.35834887      1.32630672
H       8.50814867      1.71169633      1.45788195
H       9.10485762      0.32618881     -0.53353370
H       9.72037133     -0.94561388      0.51677209
H       6.83053875      0.06788204      0.51568672
H       7.44205801     -1.28247530      1.47601947
H       7.37281717     -1.16499789     -1.58393110
H       8.09718006     -2.46817546     -0.64792740
H       5.89190799     -2.96291820      0.41179563
H       5.91660309     -3.17819200     -1.33533560
H       4.86347856     -0.90888597     -1.61407125
H       4.74038218     -0.76511822      0.14230242
H       3.42441775     -2.94801215     -1.55524215
H       3.38817221     -2.88622114      0.20363604
H       1.31562885     -2.00000055     -0.61732288
H       2.22400489     -0.68938593      0.12962339
H       2.17890806     -1.23974165     -2.88535747
H       2.88832261      0.17052309     -2.10453150
H      -0.07936815     -0.56601207     -2.09326580
H       0.67770996      0.61406103     -3.15932254
H       1.41192859      1.93164956     -1.12525952
H       0.50114283      0.83275403     -0.10591311
H      -0.75278326      2.89425248     -0.57288634
H      -0.59969705      2.64864340     -2.30407311
H      -2.06372591      0.65652932     -2.20438309
H      -2.83314001      2.09901758     -1.56864705
H      -1.56018587     -0.10351713      0.13985969
H      -2.33775881      1.34267652      0.77603566
H      -3.69888156     -0.82065620     -0.92136244
H      -3.74445708     -0.72417832      0.83579959
H      -4.90616992      1.35122246     -1.09517576
H      -4.85087909      1.54314029      0.65901658
H      -6.21377242     -0.54144190      0.92379040
H      -6.25414389     -0.74099573     -0.82941301
H      -7.42337592      1.46100469     -1.05718926
H      -7.37299600      1.67261902      0.69456818
H      -8.77979231     -0.62791732     -0.76412822
H      -8.73041311     -0.41292313      0.98712324
H      -9.95564703      1.58326164     -0.99832151
H      -9.89898939      1.80409399      0.73785720
H     -11.33773083     -0.49350883     -0.70046823
H     -11.29593098     -0.26384537      1.05840808
H     -12.27857572      1.78356173      0.71799836
