59
CC(C)(CN1C(=O)c2ccccc2C1C(=O)NCc1ccc(OC(F)(F)F)cc1)c1ccccn1
C      -3.33710470     -0.67736741      0.98261247
C      -1.82989136     -0.52984672      1.28147351
C      -1.35139191     -1.88153238      1.85244342
C      -1.03128465     -0.15104021      0.00451982
N      -1.11113547     -1.08825395     -1.11600528
C      -2.11014062     -1.09241618     -2.07198636
O      -3.02368516     -0.30457154     -2.20479404
C      -1.86913271     -2.25597577     -2.93290471
C      -2.61825842     -2.71712515     -3.99856342
C      -2.17270686     -3.87131361     -4.64769349
C      -1.00365048     -4.52748874     -4.21819594
C      -0.25890166     -4.03820777     -3.13912111
C      -0.70593752     -2.89116373     -2.50174822
C      -0.10333066     -2.13743238     -1.35129812
C       1.28204037     -1.56285587     -1.72824880
O       2.31826941     -2.21192065     -1.59198324
N       1.24424393     -0.31422868     -2.32149425
C       2.43564206      0.49013285     -2.45805027
C       2.59318877      1.36349227     -1.24085050
C       1.95261402      2.60537922     -1.16383539
C       2.02891713      3.36538377      0.00527293
C       2.74884538      2.90507842      1.11291402
O       2.73637676      3.74707164      2.18705261
C       3.61122342      3.44447296      3.25945811
F       3.24342548      2.29980026      3.87693290
F       3.55247210      4.44219813      4.17370473
F       4.88920009      3.34253788      2.83868006
C       3.38618692      1.66469330      1.04077864
C       3.30750673      0.90146625     -0.12726093
C      -1.53767258      0.58192311      2.30344058
C      -2.37382365      1.68545761      2.47440426
C      -2.03149459      2.67216245      3.39765107
C      -0.85928369      2.54791629      4.12322025
C      -0.06591895      1.44256505      3.88299218
N      -0.37522390      0.47268757      2.99478162
H      -3.72881254      0.18323400      0.43788303
H      -3.54303628     -1.56504283      0.37202241
H      -3.91822752     -0.78184296      1.90429785
H      -0.26471134     -1.91740338      1.94345696
H      -1.65533836     -2.71854237      1.21656429
H      -1.77268709     -2.06635706      2.84545963
H       0.02772436     -0.01012791      0.24712789
H      -1.39435395      0.81366707     -0.37083345
H      -3.51615123     -2.19818072     -4.31395160
H      -2.73215527     -4.27055612     -5.49202453
H      -0.67226383     -5.42559971     -4.73779250
H       0.64990735     -4.54325463     -2.81898144
H      -0.02077470     -2.76053334     -0.45816887
H       0.36286448      0.17462163     -2.25753674
H       3.31652603     -0.14223040     -2.59892093
H       2.32711777      1.10195440     -3.35637124
H       1.37897514      2.98374558     -2.00699894
H       1.52367629      4.32721255      0.04687223
H       3.93536383      1.24375185      1.87843736
H       3.80097677     -0.07241958     -0.16652688
H      -3.28153031      1.80320619      1.89485181
H      -2.68244640      3.52957121      3.54610783
H      -0.56799680      3.29525733      4.85195171
H       0.86717059      1.29419086      4.41477507
