27
CC1CCCC(C)(C)C1
C      -2.30796767     -1.71236737     -0.33679128
C      -1.30064161     -0.68129808      0.17298370
C      -1.75010473      0.73665585     -0.19792649
C      -0.73526415      1.78790714      0.23980351
C       0.65811937      1.49237152     -0.31272289
C       1.16288681      0.07156885      0.02379117
C       1.49046530     -0.04612002      1.52502865
C       2.45941336     -0.19723504     -0.76407519
C       0.10084793     -0.97546155     -0.38667521
H      -2.00739969     -2.72461634     -0.04655540
H      -2.39125853     -1.68352471     -1.42854083
H      -3.30163317     -1.52456270      0.08348814
H      -1.27315954     -0.76396297      1.26640524
H      -1.89645324      0.80914266     -1.28340444
H      -2.71930303      0.95513279      0.26620951
H      -1.06158222      2.77484868     -0.10841027
H      -0.70462966      1.83931016      1.33407542
H       0.62723985      1.61857172     -1.40344928
H       1.36216613      2.24500979      0.06376542
H       1.86543709     -1.04726043      1.76670841
H       2.26385513      0.67459758      1.81454418
H       0.62003960      0.13836355      2.16081442
H       3.23868559      0.52762632     -0.50282294
H       2.84981549     -1.19929833     -0.55339862
H       2.29023203     -0.12740806     -1.84451878
H       0.42033966     -1.97540986     -0.06491690
H       0.03985389     -1.01258115     -1.48340924
