34
CNC1(c2ccccc2Cl)CCCCC1=O.Cl
C       0.47629828      2.26074871      1.05216510
N       0.62124302      0.91824588      1.01314168
C       0.18567504     -0.03789766      0.08861272
C      -1.24624229     -0.28512443     -0.04093971
C      -1.87031920     -1.46777552      0.37893396
C      -3.24591930     -1.66797701      0.34161576
C      -4.09082033     -0.70870704     -0.11346718
C      -3.53195605      0.46568444     -0.53609650
C      -2.16774340      0.65800184     -0.49818454
Cl     -1.62149205      2.16928475     -1.12843696
C       0.82901793      0.26612343     -1.30097467
C       2.30480027      0.44500838     -1.07155893
C       3.02328427     -0.79249628     -0.58555517
C       2.39181092     -1.08981085      0.78889952
C       0.92713645     -1.26520533      0.41195731
O       0.55004118     -2.36578439      0.41624534
Cl      0.68414707      0.00000000      0.00000000
H      -0.49746756      2.66502880      1.46401672
H       0.78755518      2.92030431      0.22420514
H       1.18956742      2.64625474      1.89591084
H       0.73266599      0.49434480      1.96775492
H      -1.34382669     -2.30538361      0.78253447
H      -3.69935918     -2.60649659      0.67777211
H      -5.17433122     -0.83216535     -0.15464155
H      -4.20806808      1.25554338     -0.90776058
H       0.67995200     -0.63066112     -1.90834893
H       0.46698431      1.13558869     -1.78754316
H       2.76479613      0.86011055     -1.99570173
H       2.50749548      1.23180558     -0.28609369
H       2.82268544     -1.62320806     -1.29268138
H       4.08288018     -0.52977023     -0.48177862
H       2.53757088     -0.18415271      1.38840043
H       2.81608498     -1.99946210      1.19759729
H      -0.68414707      0.00000000      0.00000000
