49
C[C@H](Oc1ccc(S(C)(=O)=O)cc1C(=O)N1Cc2ccc(C(F)(F)F)cc2C1)C(F)(F)F
C      -0.68154773     -2.40977081     -2.73211101
C      -1.90670833     -1.86643281     -2.00151064
O      -1.56318429     -1.81453271     -0.59534720
C      -2.06012908     -0.70034671      0.02421386
C      -3.15783959     -0.86853950      0.86984685
C      -3.68783292      0.22775145      1.55447061
C      -3.10861283      1.49070585      1.39187580
S      -3.76418406      2.88432855      2.28026653
C      -4.86288284      3.63926363      1.11028653
O      -4.55596047      2.36467331      3.37830378
O      -2.65852468      3.79021519      2.52412920
C      -1.98307448      1.66444907      0.58334127
C      -1.45459225      0.55702629     -0.08586598
C      -0.26460241      0.76343595     -0.92568354
O      -0.43022747      1.23384447     -2.04690100
N       0.95900776      0.43158438     -0.39752711
C       1.21936809     -0.11759159      0.93579832
C       2.70862313     -0.24652888      0.97198805
C       3.50985904     -0.71572909      1.99766425
C       4.89260089     -0.74565341      1.79518882
C       5.46512288     -0.30380037      0.57998955
C       6.96067559     -0.36864478      0.37927209
F       7.42498782      0.56928033     -0.49331770
F       7.36400964     -1.57130837     -0.11526633
F       7.66353531     -0.18280059      1.53153313
C       4.63000769      0.16097068     -0.45111015
C       3.26112667      0.18616959     -0.23889308
C       2.18038053      0.63755369     -1.16879695
C      -3.11343545     -2.77600505     -2.24355912
F      -4.22511775     -2.29626372     -1.63818952
F      -3.39420974     -2.87093103     -3.56467427
F      -2.90667109     -4.02922598     -1.78127875
H      -0.85563627     -2.47391382     -3.81045013
H       0.18674691     -1.76581149     -2.55984059
H      -0.41161368     -3.40435760     -2.36016414
H      -2.13588600     -0.87032364     -2.40059451
H      -3.60521980     -1.85236449      0.99671803
H      -4.54270823      0.08466365      2.21363481
H      -5.63958924      2.92239863      0.83732799
H      -5.31437179      4.51308479      1.58498913
H      -4.29258045      3.94762407      0.23208806
H      -1.51034878      2.63933231      0.47942982
H       0.85178610      0.58045504      1.69354728
H       0.73059420     -1.09114974      1.03006774
H       3.08202502     -1.05458753      2.93644933
H       5.53630366     -1.11573647      2.59318613
H       5.04843482      0.49703464     -1.39717142
H       2.13921267      0.02806161     -2.07662174
H       2.27288327      1.69844301     -1.42073211
