46
CCN(CC)C(=O)n1cnc(S(=O)(=O)c2c(C)cc(C)cc2C)n1
C      -4.09061367      1.23351666      1.28735979
C      -3.87049829      1.42270175     -0.20662493
N      -3.99694507      0.17540037     -0.97682511
C      -5.27062108     -0.02746585     -1.67515425
C      -6.35144328     -0.62023693     -0.78304998
C      -3.11065510     -0.91397703     -0.99299408
O      -3.37137400     -2.00009340     -1.50601333
N      -1.82565958     -0.77840283     -0.41392353
C      -0.88093946     -1.77894895     -0.34357671
N       0.22354629     -1.34858806      0.21731612
C      -0.06722350     -0.02994632      0.49460131
S       1.09263256      1.03680017      1.29062757
O       0.82028103      2.37307095      0.78942615
O       0.93924156      0.74345670      2.70324548
C       2.70045853      0.49610601      0.68585938
C       3.14947991      0.93755696     -0.58622424
C       2.34296193      1.80764410     -1.51708562
C       4.43643762      0.57007510     -1.02210636
C       5.27315160     -0.22618428     -0.23951317
C       6.62661767     -0.63319038     -0.74295017
C       4.80525093     -0.68859165      0.99056854
C       3.52720645     -0.34415470      1.47245580
C       3.13411146     -0.91266359      2.80934361
N      -1.30212856      0.35497274      0.11740034
H      -3.93146382      2.17944356      1.81467012
H      -3.41806260      0.48749659      1.71810323
H      -5.11239106      0.90576991      1.49532472
H      -2.90583822      1.88888262     -0.41386520
H      -4.61264339      2.13871905     -0.58110593
H      -5.10930788     -0.69863634     -2.52800558
H      -5.60349952      0.92825966     -2.09878609
H      -7.24975511     -0.83555453     -1.37103067
H      -6.01607843     -1.55131223     -0.31386962
H      -6.63552086      0.07533746      0.01191255
H      -1.07319031     -2.77509100     -0.71788538
H       2.35467546      2.84671502     -1.17446258
H       1.31538505      1.44664158     -1.61138981
H       2.75790486      1.79347914     -2.53186372
H       4.79471133      0.91259333     -1.99250407
H       7.32077894     -0.79847864      0.08804345
H       6.54687585     -1.55629707     -1.32632443
H       7.05907206      0.14943294     -1.37490792
H       5.45101637     -1.33241089      1.58872967
H       3.09974500     -0.12395800      3.56701477
H       3.86022010     -1.65648975      3.15871252
H       2.17409023     -1.43358965      2.74132736
