25
CC1(C)SCC(COC(N)=O)S1
C      -3.22733982      1.06274904      0.21090523
C      -1.97369307      0.32668206      0.68119890
C      -1.74534617      0.52512988      2.17984594
S      -2.16199319     -1.46506896      0.34223631
C      -0.82068173     -1.62221314     -0.86833634
C       0.28728307     -0.65082936     -0.49505792
C       1.34542356     -0.57077595     -1.60176974
O       2.47067678      0.23641605     -1.21130801
C       3.36757707     -0.37533573     -0.40811791
N       4.36785463      0.47792743     -0.10206581
O       3.30253751     -1.52156744      0.00444333
S      -0.52582572      0.96488050     -0.23747827
H      -3.40893706      0.93012612     -0.86274390
H      -4.11921920      0.70941504      0.74284577
H      -3.15247326      2.14008951      0.40325686
H      -0.84957622      0.00320930      2.53821397
H      -2.59783463      0.15773617      2.76430090
H      -1.62934858      1.58758870      2.42688140
H      -1.22441592     -1.41997311     -1.86733900
H      -0.45432820     -2.65387854     -0.86544674
H       0.75306191     -0.93498401      0.45515075
H       1.69340911     -1.57301566     -1.88392041
H       0.93085651     -0.12595764     -2.51445150
H       4.30266398      1.44114857     -0.39311069
H       5.06966861      0.18863829      0.56186690
