43
CC1(C)SC2C(NC(=O)C(N)c3ccccc3)C(=O)N2C1C(=O)O
C       3.58477066     -0.86120654     -1.96122066
C       2.25961799     -0.98158357     -1.19625696
C       1.68605348     -2.39318467     -1.34106397
S       1.05447368      0.21765611     -1.95010626
C       1.69134153      1.58924350     -0.90666531
C       0.66165559      2.33946109     -0.02780120
N      -0.77460395      2.08169866     -0.33975629
C      -1.76638482      2.55343844      0.49916262
O      -1.56885610      3.46722802      1.29928907
C      -3.14974496      1.86760324      0.32150212
N      -4.09427401      2.35197058      1.34613770
C      -3.05367595      0.35084423      0.35510644
C      -2.33176142     -0.31500938      1.36188719
C      -2.22232907     -1.70627488      1.35705445
C      -2.84167085     -2.45095465      0.35623216
C      -3.57729185     -1.80655575     -0.63641345
C      -3.68693677     -0.41464939     -0.63577823
C       1.24782411      1.47151358      1.12558686
O       0.94559586      1.18002461      2.25996289
N       2.19576428      0.92383040      0.30210876
C       2.33693781     -0.53344027      0.27760230
C       3.59262076     -1.03004045      0.98894217
O       3.90103398     -2.20357661      1.13793870
O       4.41030396     -0.05971413      1.44235361
H       4.03732220      0.13103599     -1.85482379
H       3.44926489     -1.05583538     -3.03187850
H       4.31634441     -1.59216310     -1.59893798
H       1.54879294     -2.66697385     -2.39377884
H       2.35928371     -3.13610649     -0.89971126
H       0.71667013     -2.49359165     -0.83889270
H       2.44773477      2.21898432     -1.38461100
H       0.87158058      3.40895320      0.08383387
H      -0.99225169      1.24750787     -0.88283015
H      -3.52214083      2.19471616     -0.65744802
H      -3.75094998      2.04111083      2.25639200
H      -3.99319953      3.36938793      1.38986749
H      -1.84216118      0.24488796      2.15850431
H      -1.65989949     -2.20753998      2.14101466
H      -2.76280951     -3.53500955      0.35744889
H      -4.07397152     -2.38937896     -1.40810044
H      -4.27658327      0.06893410     -1.41205022
H       1.49336186     -0.95299905      0.84506885
H       5.13314755     -0.53424251      1.90306720
