36
Cc1ncc2n1-c1ccc(Cl)cc1C(c1ccccc1F)=NC2
C       3.55652142      1.92855641     -0.37892819
C       3.15663435      0.87579653      0.59203842
N       3.69744270      0.75177510      1.79031141
C       2.96409463     -0.19992567      2.43513694
C       1.97787332     -0.69450506      1.61651185
N       2.11075506     -0.02527872      0.41637940
C       1.34360232     -0.30451524     -0.74608132
C       1.95869508     -0.25548041     -2.00755286
C       1.24575171     -0.61153977     -3.15524382
C      -0.07646258     -1.03005188     -3.04892786
Cl     -0.94407200     -1.48658697     -4.46205934
C      -0.70185956     -1.08434491     -1.80629245
C      -0.00406383     -0.70436132     -0.64668000
C      -0.77375988     -0.68023933      0.64027192
C      -2.12846181     -0.04836359      0.65115548
C      -3.14309419     -0.62683851      1.42497434
C      -4.41593831     -0.05141392      1.45551389
C      -4.67807211      1.10810565      0.72442092
C      -3.66543142      1.69864627     -0.03139996
C      -2.39679504      1.12345623     -0.06025142
F      -1.43997741      1.73433613     -0.77465289
N      -0.35522055     -1.17335533      1.75855032
C       0.97385518     -1.75514540      1.83363828
H       4.00756200      2.77336285      0.15281487
H       2.69966583      2.31856554     -0.93576672
H       4.30377628      1.54521585     -1.07932625
H       3.18677463     -0.48793186      3.45461729
H       3.00927267     -0.00464251     -2.12427002
H       1.73654745     -0.58175099     -4.12542231
H      -1.73577590     -1.41615624     -1.74685562
H      -2.94362446     -1.52413198      2.00719059
H      -5.20065740     -0.50501556      2.05700363
H      -5.66809818      1.55732015      0.75375399
H      -3.85361084      2.60982557     -0.59116711
H       1.09380733     -2.58363666      1.12496470
H       1.10234353     -2.18975046      2.83162987
