25
CCOc1ccc(C=O)cc1OC
C       3.90074845     -0.27119572     -0.27352334
C       2.46459092      0.21440570     -0.37075730
O       1.80443990     -0.13239553      0.84747063
C       0.44637918     -0.31075605      0.76736954
C      -0.02759367     -1.33770521      1.59606876
C      -1.38531572     -1.64653830      1.64383927
C      -2.27494493     -0.91138064      0.86376937
C      -3.71435798     -1.23805944      0.90906339
O      -4.54077641     -0.62548721      0.24444890
C      -1.81819786      0.13371339      0.05038894
C      -0.45522471      0.45448905      0.00384184
O       0.05485924      1.49211674     -0.72986220
C      -0.86043627      2.33734983     -1.41594735
H       4.45993185     -0.01805207     -1.17863237
H       3.93118319     -1.35650451     -0.13075321
H       4.40269781      0.17827239      0.58974847
H       2.47004932      1.30286681     -0.48791290
H       1.98959045     -0.25893254     -1.23860332
H       0.67750835     -1.90345060      2.20148879
H      -1.72780003     -2.45260626      2.28666288
H      -4.01233731     -2.06619045      1.57384451
H      -2.55250383      0.68477502     -0.52992048
H      -1.39316421      1.78692830     -2.19815280
H      -1.55720663      2.81577924     -0.71980756
H      -0.28211907      3.12855805     -1.90278326
