17
O=C(c1ccccc1)C(F)(F)F
O       1.68863805      2.11242524      0.44294754
C       1.53997616      0.93697730      0.09890195
C       0.15912420      0.36221640      0.09205127
C      -0.90559912      1.19159835      0.47902979
C      -2.21540548      0.70796731      0.49149710
C      -2.47437207     -0.60808542      0.11776687
C      -1.42573566     -1.44070175     -0.26822037
C      -0.11227394     -0.96074766     -0.28227420
C       2.69321882      0.04073330     -0.31968541
F       2.55272561     -0.42457082     -1.59370203
F       3.90279772      0.66369072     -0.27683255
F       2.80781325     -1.06209810      0.47403897
H      -0.72342063      2.22401855      0.77480475
H      -3.03190202      1.35992022      0.79315431
H      -3.49433847     -0.98542378      0.12724462
H      -1.63137203     -2.46860463     -0.55970423
H       0.67012562     -1.64931524     -0.59101836
