33
CC(=O)Nc1ccc(S(=O)(=O)Nc2ccccn2)cc1
C       5.20489714      1.69277321      0.10231559
C       3.87405870      1.20020362      0.61429814
O       3.44565740      1.56780734      1.70201682
N       3.27224304      0.31706314     -0.26427757
C       2.04030473     -0.34972888     -0.10266400
C       1.62191068     -1.18020007     -1.15309475
C       0.41114741     -1.87471765     -1.07817795
C      -0.39219686     -1.73253697      0.05415505
S      -1.92635319     -2.62939335      0.15848264
O      -1.76133683     -3.84619741     -0.61008847
O      -2.32395256     -2.67996304      1.54990775
N      -3.00993022     -1.66671773     -0.69545575
C      -3.12416953     -0.32770898     -0.28154368
C      -3.65808060      0.04624258      0.93914589
C      -3.67976624      1.40179491      1.24898942
C      -3.17322817      2.31688283      0.33164318
C      -2.66836575      1.83528894     -0.86676017
N      -2.63498710      0.52548242     -1.19788299
C       0.02148594     -0.92925229      1.11800246
C       1.23268549     -0.23402290      1.03206169
H       5.47111900      2.62158184      0.61510631
H       5.97115512      0.93836241      0.29893399
H       5.15625074      1.89940087     -0.97071779
H       3.76809589      0.12742156     -1.12610778
H       2.23193422     -1.29964461     -2.04515894
H       0.10723620     -2.51926775     -1.89972888
H      -2.83978400     -1.72070799     -1.69697472
H      -4.04787303     -0.68976262      1.63363888
H      -4.08640732      1.74022595      2.19804085
H      -3.17276656      3.38045503      0.54506516
H      -2.26362655      2.51325609     -1.61324759
H      -0.58658267     -0.83083762      2.01467358
H       1.51922549      0.38641709      1.87597596
