31
CN1C[C@@H]2C[C@@H](C1)c1cccc(=O)n1C2
C      -3.71519763     -0.04969415      0.19659631
N      -2.39858291     -0.22297070      0.79914112
C      -1.80491303     -1.58551417      0.48006974
C      -0.43620673     -1.29785008     -0.05770636
C      -0.61390843     -0.37531097     -1.26985012
C      -0.37509370      0.92583002     -0.56654318
C      -1.49196363      0.98925061      0.57908426
C       1.13732592      0.84470255     -0.14718903
C       1.86644547      1.96512452     -0.01199417
C       3.27143906      1.90092229      0.29328091
C       3.89748344      0.72495682      0.41486099
C       3.15176896     -0.54980675      0.25812925
O       3.75144020     -1.61567721      0.37525615
N       1.78903122     -0.43803889     -0.00791676
C       0.99445630     -1.73408233     -0.08572854
H      -4.19686229      0.85706294      0.57847634
H      -4.37283186     -0.88476985      0.46222315
H      -3.66819170      0.01985792     -0.89445088
H      -2.40901221     -2.14177056     -0.24628610
H      -1.76784788     -2.17675257      1.40219928
H      -0.20583799     -0.78664594      0.89898318
H       0.10011195     -0.56252597     -2.08281176
H      -1.60276864     -0.43250585     -1.73685387
H      -0.52250551      1.76210922     -1.26048751
H      -2.11486274      1.87463092      0.39640940
H      -0.99588696      1.19253600      1.53766259
H       1.42309174      2.94745270     -0.14278925
H       3.81470497      2.83264861      0.41155734
H       4.95328057      0.64283812      0.63646067
H       1.26303880     -2.36361855      0.77091452
H       1.27885524     -2.26238871     -1.00204836
