15
COC(=O)C(C)O
C       2.41631877      0.57249949     -0.01313555
O       1.02182564      0.53552707      0.29355954
C       0.36503362     -0.52889182     -0.24151774
O       0.88362693     -1.42165681     -0.90421266
C      -1.11691531     -0.52797413      0.14397369
C      -1.79580187      0.78466872     -0.20786756
O      -1.82444813     -1.57592108     -0.52318143
H       2.92325059     -0.30251236      0.40546588
H       2.57019302      0.63014394     -1.09527232
H       2.84013655      1.47044193      0.44490346
H      -1.18415217     -0.72360933      1.21914106
H      -2.86572465      0.73947217      0.02199850
H      -1.35852197      1.62678079      0.33716359
H      -1.70835345      0.99190499     -1.28047518
H      -1.16646758     -2.27087356     -0.72424573
