42
CCCCOP(=O)(CCCC)CCCC
C       6.07480510      0.10038547     -0.63215498
C       4.92877964     -0.47458722      0.18468475
C       3.62669946      0.27867758     -0.07131050
C       2.47582198     -0.29420426      0.74475424
O       1.30384765      0.45572092      0.45836363
P      -0.09893130     -0.10336475      1.03838833
O       0.03624183     -0.73700593      2.39229535
C      -1.15858384      1.34272611      1.03153873
C      -1.30587679      2.03486059     -0.31951028
C      -2.07312875      3.35573276     -0.24760107
C      -3.52881327      3.18862008      0.16002796
C      -0.66298601     -1.23474169     -0.23125253
C      -2.03878060     -1.82857943      0.05006595
C      -2.46259284     -2.80851887     -1.04154542
C      -3.83584394     -3.39640466     -0.75901165
H       6.99738469     -0.45394343     -0.43345963
H       6.24856247      1.15111960     -0.37893621
H       5.86363650      0.03540216     -1.70432140
H       4.80244543     -1.53358664     -0.06877747
H       5.18515875     -0.42406873      1.24929161
H       3.36924265      0.24112116     -1.13729775
H       3.74898141      1.34209892      0.16986291
H       2.30970427     -1.34565205      0.48851188
H       2.69028252     -0.22007536      1.81589685
H      -0.74943126      2.05196061      1.76018951
H      -2.14109312      1.03539084      1.40397155
H      -0.30918381      2.23420199     -0.72976140
H      -1.80144372      1.36123823     -1.02740287
H      -2.04025135      3.83074915     -1.23537814
H      -1.57513994      4.03980226      0.44929047
H      -4.04389471      2.48465394     -0.50119963
H      -4.04798153      4.15064984      0.10111923
H      -3.61832358      2.82694886      1.18852839
H      -0.67006732     -0.71935141     -1.19753612
H       0.06991176     -2.04529185     -0.31355539
H      -2.02234628     -2.33489347      1.02237002
H      -2.77494086     -1.02061864      0.12990110
H      -1.73166573     -3.62199924     -1.11660262
H      -2.48228117     -2.29919900     -2.01206277
H      -4.59643778     -2.61061262     -0.71005070
H      -4.11968601     -4.09492562     -1.55235900
H      -3.84180059     -3.94043623      0.19090224
