23
C[C@H]([NH3+])C(C)(C)C
C       1.77568605     -0.87916241      0.60684299
C       0.85721492     -0.23251972     -0.42919600
N       1.46552744      1.08794396     -0.78217260
C      -0.63464168     -0.06567364      0.00127659
C      -1.45899320      0.56221392     -1.14440152
C      -1.24563576     -1.45115185      0.30270243
C      -0.80125363      0.81543334      1.25431931
H       1.82919204     -0.29485672      1.53067321
H       2.79634438     -0.96544761      0.21612460
H       1.44627876     -1.89133527      0.85803502
H       0.90558283     -0.82240707     -1.35267714
H       1.48465471      1.73388224      0.01766165
H       0.96293023      1.55339759     -1.54848395
H       2.43788026      0.97371351     -1.09951583
H      -2.52833131      0.57181820     -0.90249433
H      -1.16837597      1.60007368     -1.33694583
H      -1.33615474     -0.00348038     -2.07470532
H      -1.11404503     -2.13303243     -0.54486323
H      -0.79019741     -1.91369276      1.18433074
H      -2.32096244     -1.37512135      0.50236949
H      -1.85872546      0.90404351      1.53070093
H      -0.42606102      1.83082714      1.09176913
H      -0.27791400      0.39453412      2.11864966
