37
CC(NC(=O)C(N)c1ccccc1)c1ccccc1
C      -1.93994014     -1.29256133     -2.51526941
C      -1.61371244     -1.05603770     -1.03799398
N      -0.50302317     -0.13990579     -0.88507793
C       0.81230243     -0.50527796     -1.08135228
O       1.15506675     -1.65890250     -1.32668015
C       1.80761485      0.68480903     -0.97701038
N       1.10595030      1.91919033     -0.52392192
C       2.99613397      0.40784428     -0.07630656
C       4.28212250      0.80713508     -0.47544971
C       5.38344468      0.59759741      0.35672302
C       5.21362455     -0.00594696      1.60060179
C       3.94310481     -0.39918365      2.01488593
C       2.83987201     -0.19009283      1.18508461
C      -2.80673584     -0.54240683     -0.25235906
C      -3.53292620      0.58794716     -0.66241224
C      -4.61611818      1.05052689      0.08789834
C      -4.98419759      0.39529596      1.26062679
C      -4.26771861     -0.72042942      1.68685159
C      -3.18432377     -1.18426881      0.93795100
H      -2.80655746     -1.95355519     -2.62541314
H      -1.09346671     -1.75980636     -3.03041203
H      -2.15705380     -0.35721258     -3.04270887
H      -1.30048726     -2.02230705     -0.62166741
H      -0.67079002      0.86227584     -0.83854905
H       2.15035645      0.86067267     -2.00457227
H       1.79217638      2.67518123     -0.53759341
H       0.88572774      1.79197943      0.46638103
H       4.43609479      1.28154071     -1.44243570
H       6.37501526      0.90330081      0.03290354
H       6.07182946     -0.17297628      2.24615542
H       3.81047772     -0.87376264      2.98380406
H       1.85786190     -0.50901702      1.52914007
H      -3.25901961      1.12183560     -1.56939735
H      -5.17161241      1.92434995     -0.24281268
H      -5.82727786      0.75583556      1.84395001
H      -4.55065883     -1.23010961      2.60424885
H      -2.63315662     -2.05355741      1.29145601
