39
CCCCNC(=O)n1c(NC(=O)OC)nc2ccccc21
C      -4.51842628     -1.06227250     -1.75073127
C      -3.81242617     -0.41922975     -0.56716995
C      -3.15908968     -1.47117293      0.33197433
C      -2.49205165     -0.85820364      1.56389213
N      -1.36978170     -0.00332482      1.23033363
C      -0.14076202     -0.54184505      0.92240182
O       0.14421742     -1.73279415      0.91256044
N       0.81231272      0.41032707      0.50525613
C       1.95219389      0.09805546     -0.24319222
N       2.29121843     -1.20075964     -0.54632011
C       3.37913244     -1.54946535     -1.28747245
O       4.20864864     -0.82654939     -1.81671241
O       3.41276003     -2.91085956     -1.36300206
C       4.51241998     -3.42478308     -2.11574297
N       2.58380814      1.18306022     -0.62386680
C       1.93640145      2.22672341     -0.03398013
C       2.25124837      3.59333195     -0.08607497
C       1.48681648      4.49542888      0.65843994
C       0.43801662      4.04234606      1.45488689
C       0.10492453      2.68324351      1.51249597
C       0.85226405      1.78926891      0.72327251
H      -4.97812687     -0.29428043     -2.38064368
H      -5.30728162     -1.74286064     -1.41485353
H      -3.81347800     -1.62979657     -2.36661742
H      -4.53833581      0.16491821      0.01021589
H      -3.05733405      0.28021377     -0.94322049
H      -2.42514298     -2.04338771     -0.24811585
H      -3.92417812     -2.18096876      0.66939664
H      -3.20674870     -0.25123708      2.12935099
H      -2.13399787     -1.65917397      2.22045805
H      -1.59123547      0.92714878      0.89989839
H       1.72147815     -1.95649422     -0.17816523
H       5.46223898     -3.13556511     -1.65504268
H       4.44481790     -4.51623174     -2.11043104
H       4.46172548     -3.08084852     -3.15361008
H       3.09219432      3.93001692     -0.68373236
H       1.73139027      5.55473030      0.63127867
H      -0.12442197      4.75727411      2.05300766
H      -0.68740934      2.35601706      2.17784174
