31
Cc1cc(C)cc(OCC2CNC(=O)O2)c1
C      -2.95802407      2.74277081     -0.46199234
C      -2.47042982      1.33614055     -0.27033337
C      -3.36480179      0.32354089      0.09894558
C      -2.91658159     -0.98632335      0.30068257
C      -3.87361036     -2.06268756      0.71882062
C      -1.55131667     -1.26533650      0.16417269
C      -0.64294613     -0.26305359     -0.18741610
O       0.65623636     -0.68124332     -0.28274913
C       1.63228060      0.30273325     -0.61950965
C       3.00134235     -0.36378323     -0.66382654
C       3.41281885     -0.96842560      0.66255290
N       4.81539968     -0.72830602      0.66937312
C       5.10995578      0.30962336     -0.17088508
O       6.17073458      0.90683534     -0.20148226
O       4.02491683      0.60655759     -0.94548744
C      -1.10595309      1.03597455     -0.40197311
H      -3.99512999      2.75305409     -0.81345799
H      -2.89945170      3.29068410      0.48344379
H      -2.35641201      3.26538058     -1.21308412
H      -4.42027236      0.55713957      0.22729947
H      -4.87137520     -1.88027382      0.30601395
H      -3.94313943     -2.09813137      1.81034064
H      -3.54537943     -3.04119464      0.35275202
H      -1.18504236     -2.27528900      0.33511815
H       1.64089840      1.11230571      0.12182962
H       1.41861064      0.73775272     -1.60397996
H       3.02742473     -1.12437858     -1.45434864
H       3.20038872     -2.03739978      0.74108376
H       2.98024930     -0.44392723      1.52107630
H       5.43654321     -0.90003956      1.44908628
H      -0.42793407      1.83930004     -0.67206574
