9
O=[Si]([O-])O[Si](=O)[O-].[Na+].[Na+]
O      -1.95259013      1.45954204     -0.40576356
Si     -1.58424814      0.10783931      0.33651375
O      -2.03030213     -1.36336422     -0.51586168
O      -0.01652963      0.07417420      1.11719899
Si      1.40848667     -0.11263164      0.17579419
O       1.91390151     -1.49205826     -0.38823808
O       2.26128186      1.32649857     -0.31964360
Na      0.00000000      0.00000000      0.00000000
Na      0.00000000      0.00000000      0.00000000
