16
Cc1c(Cl)c(O)c(Cl)c(Cl)c1Cl
C       2.31203232     -0.53473477      0.07068971
C       0.86674179     -0.10151421      0.01196257
C      -0.18975964     -1.02822911      0.04299548
Cl      0.09484303     -2.73704324      0.15094535
C      -1.52443227     -0.59672736     -0.00701247
O      -2.54806220     -1.51522882      0.01885332
C      -1.83509928      0.76585261     -0.08151713
Cl     -3.50347748      1.24567971     -0.14350907
C      -0.80054514      1.71128102     -0.10017981
Cl     -1.17252266      3.40994798     -0.18352145
C       0.54136879      1.27606614     -0.04928768
Cl      1.83389387      2.44704506     -0.05157774
H       2.45084252     -1.61395860     -0.02217700
H       2.75505631     -0.22959903      1.02448484
H       2.87816487     -0.09036064     -0.75501093
H      -2.15904483     -2.40847675      0.07386201
