42
CC1=NN(c2ccc(S(=O)(=O)[O-])cc2)C(=O)C1N/N=C1\C=C([N+](=O)[O-])C=C(Cl)C1=O.[Na+]
C      -0.64250650     -2.85255089     -1.31452347
C       0.14804205     -1.92751360     -0.45457106
N       1.38919916     -1.62482990     -0.68515073
N       1.77551597     -0.74294897      0.31385649
C       3.09788604     -0.22908688      0.28684447
C       3.55901596      0.67875298      1.25321091
C       4.86980352      1.16907375      1.21223262
C       5.73479573      0.74534452      0.20347672
S       7.42236662      1.40268657      0.13649763
O       8.14321513      0.45350035      0.97903136
O       7.73942802      1.35060102     -1.28860056
O       7.26984340      2.74756570      0.68599868
C       5.29967848     -0.14771189     -0.77384456
C       3.98878961     -0.63264484     -0.72593214
C       0.74913163     -0.43102164      1.22109169
O       0.70100376      0.35691830      2.15603465
C      -0.42532052     -1.28052703      0.77451692
N      -1.59499715     -0.42965882      0.54631113
N      -2.77241773     -1.07843690      0.27586069
C      -3.84201422     -0.36902160      0.06868170
C      -3.91167740      1.11836674      0.02478995
C      -5.10769506      1.71202913     -0.08602254
N      -5.12030413      3.18337843     -0.11852172
O      -6.19381959      3.72810293     -0.40688740
O      -4.07410948      3.78611138      0.15011355
C      -6.35377303      0.98430319     -0.16209389
C      -6.39684042     -0.35148796     -0.20934787
Cl     -7.89529499     -1.18915270     -0.32296224
C      -5.14319355     -1.14728289     -0.17354668
O      -5.12604324     -2.36042267     -0.32493477
Na      0.00000000      0.00000000      0.00000000
H      -1.16390745     -3.58073724     -0.68804654
H       0.01764872     -3.38312051     -2.00592666
H      -1.37347747     -2.28063762     -1.89137386
H       2.92327918      1.03036665      2.05898858
H       5.22202714      1.87545887      1.96037077
H       5.98015949     -0.46067837     -1.56156313
H       3.67443088     -1.33144309     -1.49642959
H      -0.64917478     -2.02904091      1.54058140
H      -1.66302409      0.32141247      1.23611694
H      -2.97479963      1.66188246      0.07199243
H      -7.28087009      1.55410147     -0.19105151
