20
CNC(=O)Oc1ccccc1
C       3.93220394     -0.20711742      0.42267270
N       2.73420614     -0.43165491     -0.33859438
C       1.49325070     -0.14785824      0.16318876
O       1.27652805      0.21500789      1.31094128
O       0.55060162     -0.32500317     -0.83714541
C      -0.77159398     -0.08486491     -0.44833514
C      -1.43055752      1.00712046     -1.00963033
C      -2.76625912      1.23837779     -0.68300226
C      -3.43280396      0.37210161      0.18680061
C      -2.76757669     -0.73025367      0.72866571
C      -1.43214735     -0.96760564      0.40531554
H       4.19790851      0.85078958      0.35059186
H       3.77470387     -0.47137081      1.47176689
H       4.73291555     -0.81809721     -0.00016891
H       2.78541692     -0.59333252     -1.33448986
H      -0.91032893      1.67358089     -1.69020503
H      -3.28929176      2.09225565     -1.10533035
H      -4.47340214      0.55569221      0.44256431
H      -3.29012397     -1.40275881      1.40377597
H      -0.91364990     -1.82500878      0.82302250
