44
CC12CCC3c4ccc(O)cc4CCC3C1CCC2O
C      -2.49996205     -1.22982937      1.47302631
C      -2.36800246     -0.55860174      0.09571968
C      -1.69339827     -1.53175397     -0.90003731
C      -0.18991029     -1.70790535     -0.67162197
C       0.55585637     -0.35938714     -0.70024244
C       2.07156214     -0.46531870     -0.53268410
C       2.79215821     -1.51099762     -1.13842904
C       4.18099041     -1.59657425     -1.02231950
C       4.87128941     -0.62927503     -0.31215447
O       6.22559239     -0.75144998     -0.21823171
C       4.19452217      0.43202359      0.27544739
C       2.79613893      0.53369470      0.15551262
C       2.11524898      1.70453077      0.82230901
C       0.67928427      1.92026750      0.35647199
C      -0.07012733      0.58536883      0.35530094
C      -1.58907439      0.77229544      0.18257577
C      -2.02675812      1.55325302     -1.06737474
C      -3.41368534      1.02342842     -1.44975399
C      -3.73738387     -0.09430388     -0.45523676
O      -4.58229251      0.42840062      0.56731324
H      -2.91684274     -0.54635226      2.22067040
H      -1.53391942     -1.56886643      1.85895348
H      -3.15980209     -2.10275453      1.41665670
H      -1.83599166     -1.18616239     -1.93183125
H      -2.18180474     -2.51327167     -0.84795864
H       0.17829839     -2.37431228     -1.45909028
H      -0.00411802     -2.22402169      0.27792379
H       0.41214317      0.07829869     -1.69769214
H       2.28940460     -2.27663783     -1.72219005
H       4.71923967     -2.41560078     -1.49044522
H       6.56606016     -0.00932091      0.30703475
H       4.73962829      1.19260983      0.82718535
H       2.68526284      2.62264810      0.63520613
H       2.12130680      1.52764083      1.90539132
H       0.67952025      2.35845752     -0.64962202
H       0.19065734      2.64220386      1.02128310
H       0.07833330      0.12935556      1.34608692
H      -1.94812895      1.33802277      1.05492787
H      -2.06249456      2.62857116     -0.86005680
H      -1.34189149      1.41544369     -1.90990339
H      -4.15875699      1.82593251     -1.43205316
H      -3.37530539      0.62620875     -2.47058582
H      -4.28757437     -0.90924615     -0.93668362
H      -4.16527305      1.22328778      0.93929574
