38
C=C(C)C(=O)OCCOCCOCCCC
C      -6.77703446     -0.22954290      0.31795647
C      -5.63691303      0.47691913      0.40220744
C      -5.54848832      1.78604410      1.12277008
C      -4.42060742     -0.07988459     -0.25654444
O      -4.39032503     -1.13438908     -0.87246664
O      -3.36575538      0.74909173     -0.05846588
C      -2.13323536      0.33901058     -0.67003191
C      -1.42157180     -0.72440457      0.16078245
O      -0.14598066     -0.99487996     -0.41761163
C       0.55142225     -2.02052152      0.29900866
C       1.95042707     -2.18948860     -0.29099174
O       2.78396747     -1.11226279      0.15108698
C       4.07725388     -1.16557333     -0.44570520
C       4.91743885      0.00065469      0.06642229
C       4.33892746      1.35564819     -0.34797911
C       5.20754761      2.50364813      0.14192734
H      -6.82345898     -1.17827230     -0.21146385
H      -7.69688221      0.12122821      0.77432186
H      -5.24008777      2.58344423      0.43864495
H      -6.51199834      2.07879842      1.55400287
H      -4.82651813      1.72697652      1.94390936
H      -2.29753881     -0.00129629     -1.70023746
H      -1.49876689      1.22923500     -0.74900729
H      -2.01608156     -1.64395647      0.19860451
H      -1.29605488     -0.36630363      1.18956129
H      -0.00671938     -2.95709300      0.19380939
H       0.61707847     -1.74540367      1.35776152
H       1.90279093     -2.18838345     -1.38579468
H       2.38593065     -3.13127543      0.05982281
H       3.98621266     -1.11680650     -1.53694371
H       4.56209496     -2.11012784     -0.17400841
H       4.96826786     -0.04340563      1.16120082
H       5.93908101     -0.09802221     -0.31835141
H       4.25863538      1.40664712     -1.44005064
H       3.32786651      1.47602723      0.05753754
H       5.28329193      2.49980649      1.23397731
H       4.77762433      3.46208359     -0.16547671
H       6.21815915      2.43603044     -0.27330165
