29
O=C1CN=C(c2ccccn2)c2cc(Br)ccc2N1
O      -3.15402038     -2.87520352      1.02516019
C      -2.52292260     -1.96268987      0.48964659
C      -1.77852516     -2.14239003     -0.82262702
N      -0.34949324     -1.93127109     -0.62817586
C       0.08581297     -0.74392385     -0.35513331
C       1.56610217     -0.58949797     -0.10688669
C       2.44412558     -1.60115375     -0.48478823
C       3.80112872     -1.43933340     -0.21880194
C       4.23637535     -0.28352322      0.41873414
C       3.29258478      0.66846241      0.76748697
N       1.97038199      0.54373456      0.52079125
C      -0.78649493      0.46859264     -0.23866717
C      -0.35157235      1.67084720     -0.82162171
C      -1.04563416      2.85529072     -0.58582159
Br     -0.43487774      4.47048210     -1.35419277
C      -2.17263531      2.86155976      0.22908242
C      -2.63088035      1.66433404      0.78213299
C      -1.97225349      0.45523486      0.51522919
N      -2.57271359     -0.70378057      1.02980562
H      -2.19897888     -1.49255014     -1.59852804
H      -1.93350948     -3.17333223     -1.15942797
H       2.08254368     -2.50090371     -0.97214957
H       4.50948658     -2.21308702     -0.50163553
H       5.28629893     -0.13054630      0.64358036
H       3.58509330      1.58530126      1.27216938
H       0.54955376      1.68989187     -1.43006287
H      -2.70844247      3.78606719      0.42952212
H      -3.53262298      1.68318735      1.39043265
H      -3.26391071     -0.61979929      1.76474642
