43
CCOC(=O)CN(C(=O)CCl)c1c(CC)cccc1CC
C       5.74015371     -0.04431405     -0.99527251
C       4.48335553     -0.87768057     -0.83753420
O       3.38804081      0.00922040     -0.58143852
C       2.19218107     -0.62293495     -0.38611921
O       2.01957783     -1.83217244     -0.48026103
C       1.10842039      0.41580908     -0.11098813
N      -0.07382112     -0.18854232      0.51471616
C       0.06237474     -0.59515736      1.84788633
O       1.14885810     -0.51757007      2.43183490
C      -1.15472890     -1.19009113      2.54403112
Cl     -1.61099606     -0.17326753      3.92668395
C      -1.32964945      0.20166788     -0.02416958
C      -1.97552966      1.38073774      0.41731878
C      -1.35404178      2.38074801      1.37043311
C      -0.80154093      3.59636629      0.63705990
C      -3.24832168      1.68690957     -0.09584761
C      -3.86035981      0.86446888     -1.03598644
C      -3.20201257     -0.27060478     -1.49694076
C      -1.92797222     -0.61274910     -1.01363486
C      -1.27158783     -1.85374364     -1.57911598
C      -1.46436182     -3.08281791     -0.70560401
H       5.93060321      0.54109349     -0.08966022
H       5.62868405      0.66945799     -1.81819497
H       6.60749300     -0.68000814     -1.19397992
H       4.29479609     -1.44019062     -1.75874306
H       4.60280936     -1.57172719      0.00200541
H       0.84081845      0.87556471     -1.06912780
H       1.50859836      1.18073067      0.56435252
H      -0.88537291     -2.18227373      2.91875863
H      -2.02529854     -1.30319946      1.89814293
H      -2.11221255      2.70236333      2.09561123
H      -0.55165141      1.93697834      1.96330081
H      -0.03560544      3.30769287     -0.09014661
H      -0.34800965      4.29242834      1.34986996
H      -1.58959951      4.13321129      0.09857956
H      -3.76894598      2.58476770      0.23361433
H      -4.84523934      1.11703209     -1.42104909
H      -3.69124318     -0.89292524     -2.24423477
H      -1.68779155     -2.06198386     -2.57347139
H      -0.20853933     -1.67004747     -1.75665283
H      -2.52591595     -3.27463001     -0.51712203
H      -0.96405229     -2.97435853      0.26015335
H      -1.04236321     -3.96425855     -1.19905742
