27
O[Si](O)(c1ccccc1)c1ccccc1
O      -0.04749774     -2.05727417      1.73441322
Si     -0.05967018     -1.45550208      0.19975251
O      -0.14711576     -2.68982577     -0.88940259
C      -1.51718032     -0.32367763      0.01818098
C      -2.55440931     -0.60983939     -0.88934759
C      -3.65448824      0.24263700     -1.01876608
C      -3.73986046      1.39598074     -0.24403760
C      -2.72639823      1.69884835      0.66084010
C      -1.62575168      0.84754405      0.79242715
C       1.48412903     -0.48252383     -0.12937934
C       2.51296907     -0.40093893      0.82778946
C       3.67789519      0.32836043      0.57341053
C       3.83763187      0.98890747     -0.64143757
C       2.83382443      0.92149638     -1.60344831
C       1.66838265      0.19228698     -1.35154389
H      -0.91590601     -2.34419190      2.05653520
H       0.69031561     -3.15850962     -1.02818739
H      -2.51679136     -1.50473520     -1.51098209
H      -4.44379366      0.00398715     -1.72691299
H      -4.59453584      2.05899452     -0.34651657
H      -2.78891267      2.60017190      1.26515295
H      -0.84755670      1.11568499      1.50728202
H       2.41794463     -0.90629463      1.78917863
H       4.45953178      0.37996657      1.32694211
H       4.74277927      1.55702473     -0.83767741
H       2.95448901      1.43854630     -2.55191333
H       0.89997560      0.16287561     -2.12432471
