22
CCCCC(=O)CC
C      -3.38168401     -1.03827252     -0.28695473
C      -2.39800481      0.11904607     -0.35390922
C      -0.95200897     -0.37404424     -0.34945616
C       0.03018878      0.78937018     -0.41569639
C       1.45912203      0.28684283     -0.46230708
O       2.03458883      0.12745166     -1.53866308
C       2.11313152     -0.03303450      0.87094246
C       3.55525010     -0.48297320      0.71960627
H      -3.23772876     -1.62316437      0.62711442
H      -3.26030271     -1.70647201     -1.14550780
H      -4.40970164     -0.66268146     -0.29148698
H      -2.56695266      0.78452646      0.50068409
H      -2.59015088      0.70185478     -1.26227772
H      -0.78585529     -1.04546029     -1.20123579
H      -0.76775945     -0.96670807      0.55474951
H      -0.14551182      1.39518297     -1.31235180
H      -0.08360589      1.45626115      0.44599891
H       1.53460045     -0.82210710      1.36123379
H       2.07734562      0.86690798      1.49370324
H       4.15968031      0.29044031      0.23421841
H       3.62204123     -1.39138294      0.11178705
H       3.99331800     -0.69473330      1.69980860
