19
COC(=O)c1ccc(O)cc1
C      -3.68844862     -0.08419205     -0.12569400
O      -2.31632269      0.30751529     -0.06542950
C      -1.45507594     -0.72722337      0.09991641
O      -1.76339347     -1.90497969      0.19488986
C      -0.04932773     -0.24023472      0.15312354
C       0.28228855      1.11743989      0.04191137
C       1.61950465      1.51824548      0.09874134
C       2.62006062      0.56717561      0.26584068
O       3.90921144      1.00638453      0.31536784
C       2.30985155     -0.78417021      0.37797194
C       0.97282454     -1.18715276      0.32137244
H      -4.29241327      0.81755487     -0.25918505
H      -3.86109568     -0.74630820     -0.97998022
H      -3.99048022     -0.56822346      0.80838331
H      -0.48679602      1.87429222     -0.08910135
H       1.87940395      2.56997602      0.01280790
H       4.49625200      0.24151986      0.43400379
H       3.08491406     -1.53297280      0.50861485
H       0.72904226     -2.24464651      0.40904525
