36
COCC(NC(C)=O)C(=O)NCc1ccccc1
C       5.05936644     -1.32732177     -0.46951361
O       3.89291063     -1.00467087      0.27890964
C       2.70227207     -1.43958452     -0.39844830
C       1.48112274     -1.12012510      0.47839559
N       1.48463490      0.31032972      0.83448691
C       0.75724067      0.80212070      1.88967120
C       1.06686084      2.23015486      2.24755884
O      -0.08570598      0.14316268      2.49260729
C       0.20021621     -1.53608278     -0.27915180
O       0.21951942     -1.99184380     -1.42173525
N      -0.95895353     -1.41166299      0.45262476
C      -2.26487153     -1.54929008     -0.14117034
C      -2.78250411     -0.21240167     -0.60686389
C      -2.55472634      0.21780752     -1.92162377
C      -3.00984050      1.46664186     -2.34710621
C      -3.68819589      2.30112468     -1.46051213
C      -3.90737582      1.89045407     -0.14671997
C      -3.45306037      0.64165311      0.28047545
H       5.14428406     -2.41067524     -0.59761301
H       5.93208986     -0.97161296      0.08460060
H       5.03784942     -0.83163299     -1.44479002
H       2.63710688     -0.91392912     -1.35942361
H       2.76092563     -2.51800925     -0.58883718
H       1.54149592     -1.69305130      1.41191267
H       2.36917478      0.77263826      0.65403752
H       0.12934486      2.78285900      2.35415525
H       1.66556264      2.71852381      1.47360485
H       1.61840216      2.25110275      3.19099120
H      -0.89734494     -0.89302017      1.32991122
H      -2.93206212     -1.96674969      0.62096750
H      -2.23431166     -2.26256204     -0.97242393
H      -2.01177139     -0.42019143     -2.61713951
H      -2.83012355      1.78882265     -3.36928506
H      -4.04147960      3.27379441     -1.79211872
H      -4.42875925      2.54422555      0.54749704
H      -3.61929355      0.33900213      1.31206880
