8
O=C([O-])C(=O)[O-].[K+].[K+]
O      -1.23393578      1.27879046      0.00518763
C      -0.77541161      0.08060424     -0.00984323
O      -1.47000938     -0.99771532     -0.03951931
C       0.77541123     -0.08060383      0.00984645
O       1.23394625     -1.27877720     -0.00595730
O       1.46999929      0.99770166      0.04028576
K       0.00000000      0.00000000      0.00000000
K       0.00000000      0.00000000      0.00000000
