20
CN(C)c1cc[nH+]cc1
C      -1.92952535     -0.95861467     -1.08973214
N      -1.28868840     -0.30123044      0.05384502
C      -2.18483588      0.48991082      0.90332186
C       0.08092570     -0.06216038      0.05554225
C       0.93942822     -0.64631051     -0.88747605
C       2.31237664     -0.41781955     -0.85308619
N       2.83498653      0.36837805      0.09543556
C       2.07137882      0.94947122      1.02825717
C       0.69435487      0.74410315      1.02568980
H      -3.00477092     -1.09317550     -0.92831477
H      -1.51863904     -1.96164190     -1.24700765
H      -1.80327895     -0.36311635     -2.00045258
H      -3.22668879      0.16588785      0.80398958
H      -2.14051552      1.55037988      0.63238454
H      -1.92970123      0.37040352      1.96174197
H       0.55897111     -1.29868237     -1.66887495
H       3.00185402     -0.85492271     -1.56735000
H       3.84359346      0.52521001      0.11065784
H       2.57504211      1.56657175      1.76454552
H       0.11373261      1.22735814      1.80688323
