42
O=C(O)c1cc(Nc2ccccc2)c(C(=O)O)cc1Nc1ccccc1
O      -1.79139498     -1.33944285      3.17034035
C      -0.71121896     -0.93210565      2.77865012
O       0.24323446     -0.55429173      3.64726066
C      -0.30450971     -0.78103911      1.35566524
C       1.04667303     -0.54818873      1.03897179
C       1.48320886     -0.41178293     -0.28727933
N       2.84036567     -0.14707956     -0.57561253
C       3.81792871      0.61165613      0.09781025
C       5.16579432      0.39862060     -0.22933470
C       6.18837831      1.08763756      0.42840453
C       5.87719352      1.99969982      1.43211518
C       4.54602584      2.21984498      1.77510061
C       3.52590771      1.52670993      1.11488125
C       0.52331146     -0.54442460     -1.31207224
C       0.93984426     -0.45286947     -2.73728717
O       2.08881645     -0.46229678     -3.14459447
O      -0.09574778     -0.33914920     -3.58747850
C      -0.82721142     -0.78127532     -0.99552855
C      -1.26844904     -0.88919829      0.33178977
N      -2.63519245     -1.09582119      0.62230237
C      -3.81258192     -0.64403361     -0.00575113
C      -3.84195143      0.38785046     -0.94988329
C      -5.03843083      0.76307192     -1.57005517
C      -6.22429715      0.10298821     -1.26002211
C      -6.21419745     -0.93124900     -0.32922663
C      -5.01673428     -1.30161093      0.28880016
H      -0.15814732     -0.69806934      4.52990765
H       1.78155126     -0.50612062      1.84052205
H       3.07956333     -0.29144270     -1.56268531
H       5.42983346     -0.32071539     -1.00125291
H       7.22513716      0.90665074      0.15792782
H       6.66934409      2.53772125      1.94570193
H       4.29642864      2.93443917      2.55502013
H       2.49818045      1.74268632      1.39022901
H       0.31989790     -0.28178920     -4.47336459
H      -1.54629756     -0.91900928     -1.80066384
H      -2.80350919     -1.38082480      1.59328715
H      -2.94129921      0.94168713     -1.19640942
H      -5.04078702      1.57477380     -2.29279535
H      -7.15333849      0.39422043     -1.74252290
H      -7.13469191     -1.45458625     -0.08511579
H      -5.02663082     -2.12184191      1.00304224
