52
CC(=O)N1CCN(C(=O)/C=C/c2ccc(Sc3ccc4[nH]ccc4c3)c(Cl)c2)CC1
C       7.96061328      2.05859130     -1.46787965
C       7.03790416      0.98698094     -1.99276452
O       7.13554585      0.59610996     -3.15566136
N       6.09826389      0.48051704     -1.11059027
C       5.15812479     -0.53857685     -1.58075635
C       3.78451269     -0.42502244     -0.90480404
N       3.85955904     -0.38638831      0.56288608
C       2.82138646     -0.70564912      1.42179838
O       2.97423265     -0.82885528      2.63503744
C       1.47694765     -0.88496652      0.80977206
C       0.54396714     -1.59075940      1.46847221
C      -0.83109699     -1.81058942      0.99733210
C      -1.16490897     -1.88956684     -0.35915671
C      -2.48622554     -2.12462313     -0.75626014
C      -3.50363530     -2.29284004      0.19351634
S      -5.16167299     -2.57925287     -0.42153998
C      -5.90638408     -0.98369211     -0.11135164
C      -6.93765986     -0.88098642      0.82607523
C      -7.54801910      0.34682588      1.10844381
C      -7.09277722      1.46875687      0.40888076
N      -7.49430417      2.78386263      0.48016480
C      -6.77249846      3.54696437     -0.39925074
C      -5.88830218      2.71697764     -1.04983594
C      -6.07778717      1.40078601     -0.54527103
C      -5.47842768      0.15362226     -0.81322684
C      -3.16388097     -2.25494373      1.55343146
Cl     -4.32173938     -2.51740715      2.81332374
C      -1.83977990     -2.01587690      1.94665905
C       5.17714876     -0.11240358      1.14305219
C       5.99468450      0.87435968      0.30010137
H       8.66289440      1.62724306     -0.75000327
H       7.38903673      2.86920268     -1.00755135
H       8.53203563      2.48135975     -2.30062105
H       5.04095739     -0.48239570     -2.66838058
H       5.60943019     -1.51122517     -1.34811736
H       3.29581450      0.50579801     -1.21612548
H       3.15278588     -1.26348980     -1.21707676
H       1.27219233     -0.39612822     -0.13156153
H       0.78463960     -2.02155518      2.44068660
H      -0.40518606     -1.78431952     -1.13010494
H      -2.71351836     -2.17554701     -1.81975818
H      -7.27693106     -1.76550508      1.36188480
H      -8.34165002      0.41684626      1.84479842
H      -8.21923066      3.12921043      1.09394684
H      -6.94985294      4.61044079     -0.48617135
H      -5.17877822      3.02280579     -1.80782100
H      -4.69205220      0.08723093     -1.55817426
H      -1.59901049     -1.98502019      3.00814159
H       5.69904666     -1.07556586      1.20919525
H       5.07249797      0.27520445      2.16280592
H       6.99675244      0.98282880      0.72683312
H       5.51433536      1.86062629      0.31239916
