48
Cc1ccc(N(C)N=CC2=[N+](C)c3ccccc3C2(C)C)cc1.[Cl-]
C       5.75436191      2.11785109      1.01189828
C       4.72246171      1.08332611      0.66835515
C       4.95690391      0.17112844     -0.36560187
C       4.01690727     -0.81957374     -0.66269206
C       2.82747221     -0.92386453      0.07202036
N       1.87784362     -1.93937312     -0.27429060
C       2.33846650     -3.22621283      0.28041000
N       0.56251490     -1.66350284      0.00763801
C       0.03641393     -0.86471240     -0.85824737
C      -1.37274571     -0.44863181     -0.65960265
N      -2.36743160     -1.23219356     -0.38477953
C      -2.41873097     -2.68752601     -0.22786904
C      -3.57689513     -0.41761739     -0.20398820
C      -4.85709914     -0.82830997      0.11804931
C      -5.83661724      0.16130250      0.23311019
C      -5.51782512      1.51578921      0.02912882
C      -4.21541364      1.90831182     -0.29169758
C      -3.24977055      0.92298760     -0.40526535
C      -1.78294246      1.02662781     -0.73085718
C      -1.56419249      1.58766722     -2.13739216
C      -1.02811891      1.84472115      0.31869350
C       2.60451083     -0.01442348      1.11640097
C       3.54584708      0.97443020      1.41690033
Cl      0.00000000      0.00000000      0.00000000
H       6.24890829      2.48733812      0.10710925
H       5.29716454      2.98059570      1.50830789
H       6.50792179      1.68727043      1.67869850
H       5.87541745      0.22512884     -0.94750575
H       4.21570635     -1.50843532     -1.47998666
H       2.37397764     -3.20068792      1.37598366
H       1.64573655     -4.02179623     -0.01710397
H       3.32642287     -3.50178816     -0.10505193
H       0.55295576     -0.44343003     -1.73713800
H      -1.48340450     -3.13720481     -0.56786635
H      -2.58192187     -2.91845494      0.82801587
H      -3.23489481     -3.08221960     -0.83959719
H      -5.12243719     -1.86657715      0.28461067
H      -6.86083463     -0.11167336      0.48583386
H      -6.29989143      2.26948173      0.12530198
H      -3.98384699      2.95997322     -0.44369186
H      -0.49819619      1.63457365     -2.38629540
H      -2.04824463      0.96401575     -2.89888751
H      -1.97066346      2.60147336     -2.23143469
H      -1.13909581      1.41468270      1.32133950
H      -1.39185361      2.87744839      0.35943563
H       0.04485106      1.87840722      0.09854898
H       1.70947920     -0.08922391      1.72671016
H       3.36082271      1.65290086      2.24719803
