15
CC/C=C\C(=O)O
C      -2.00333775      0.71214873      0.22048411
C      -1.09182118     -0.45338792      0.56878940
C      -0.23775023     -0.85151671     -0.60072560
C       1.05990824     -0.57768132     -0.81145260
C       1.92128091      0.23552479      0.06344444
O       1.61497867      0.87535887      1.04879254
O       3.18583204      0.19748945     -0.39021147
H      -2.65405679      0.46864765     -0.62625960
H      -2.64083167      0.96173285      1.07471836
H      -1.42295919      1.60365779     -0.04017107
H      -0.49602558     -0.20785590      1.45183298
H      -1.70411482     -1.31708844      0.85515597
H      -0.74857841     -1.44900985     -1.35500510
H       1.54412157     -0.95893134     -1.70545345
H       3.67335421      0.76091134      0.24606109
