12
OCCCBr
O      -1.29784305      1.26155324     -0.30900477
C      -1.10684626      0.01337812      0.33966256
C       0.11481826     -0.68706730     -0.23745108
C       1.37534595      0.14022574     -0.05052817
Br      2.91881718     -0.86287769     -0.69331752
H      -2.12164521      1.64418224      0.04049445
H      -1.99979977     -0.60018007      0.18354068
H      -0.98599237      0.19058729      1.41317090
H       0.22381289     -1.66741401      0.24142895
H      -0.04199072     -0.86482611     -1.30881835
H       1.56872130      0.36058134      1.00289966
H       1.35260182      1.07185722     -0.62207729
