11
CNC(N)=O
C      -1.62455261     -0.17257376     -0.27135399
N      -0.21671039      0.03185237     -0.50223027
C       0.65128981     -0.01036309      0.54952406
N       1.91643732      0.30869273      0.17535517
O       0.37190913     -0.29842301      1.70219846
H      -2.12353829     -0.27729129     -1.23735466
H      -2.02621900      0.69280898      0.26300488
H      -1.77830930     -1.07344060      0.32920045
H       0.03611220      0.70443852     -1.21165690
H       2.58522204      0.15634464      0.92071930
H       2.20835911     -0.06204550     -0.71740651
