24
C/C=C/C.C=CCC
C      -1.94257177      0.02507530     -0.16857061
C      -0.50849403      0.43222289     -0.06788672
C       0.50849360     -0.43222099      0.06788807
C       1.94257189     -0.02507522      0.16857070
C       1.85110151     -0.68151487      0.31038207
C       0.60879468     -0.71245962     -0.18799116
C      -0.22969463      0.50765390     -0.43370497
C      -1.50087453      0.48564937      0.40070938
H      -2.51524669      0.47344731      0.64898346
H      -2.06934984     -1.06098622     -0.11885200
H      -2.36334070      0.37490673     -1.11617801
H      -0.30875913      1.50081080     -0.11035071
H       0.30875763     -1.50080893      0.11035186
H       2.06935194      1.06098571      0.11885194
H       2.36334229     -0.37490943      1.11617634
H       2.51524481     -0.47344795     -0.64898431
H       2.33606748      0.25193114      0.57857166
H       2.41158271     -1.59899851      0.46162916
H       0.16804120     -1.67353051     -0.44585427
H       0.33274179      1.42175649     -0.21024842
H      -0.49247974      0.54574092     -1.49700761
H      -2.11193424     -0.39371097      0.17036986
H      -2.10240302      1.37722402      0.19655020
H      -1.27094320      0.47025863      1.47148056
