50
CC(C)OC(=O)CCCCCCCCC(=O)OC(C)C
C       8.19677550      0.08417165     -0.98462744
C       7.43479651      0.29842265      0.31753279
C       7.97098205     -0.61699421      1.41251385
O       6.05361323     -0.01612019      0.05864502
C       5.14127909      0.56003387      0.89320728
O       5.40708970      1.31931331      1.81289530
C       3.75101805      0.12411077      0.49167156
C       2.70884646      0.53493694      1.53112659
C       1.31003944     -0.01156732      1.23560316
C       0.66675550      0.61087217     -0.00587631
C      -0.75421211      0.08009760     -0.21660949
C      -1.42472069      0.74883999     -1.41854688
C      -2.79286381      0.15391600     -1.76257407
C      -3.82940231      0.32607336     -0.65231287
C      -5.20250025     -0.13555417     -1.08431359
O      -5.49717780     -0.54481372     -2.19828290
O      -6.06486808     -0.01842881     -0.03379581
C      -7.42617951     -0.41513570     -0.28418716
C      -8.29985262      0.32013419      0.72530886
C      -7.55915111     -1.92445403     -0.11463012
H       7.79645769      0.73431223     -1.77090358
H       9.26265757      0.30072401     -0.86296660
H       8.08509107     -0.94559748     -1.34184607
H       7.53940056      1.34999021      0.61127163
H       7.42007907     -0.47421319      2.34732722
H       7.84902016     -1.66968435      1.13527479
H       9.03100530     -0.42594839      1.60563784
H       3.75060346     -0.96640045      0.38985775
H       3.52774353      0.57439341     -0.48034792
H       3.02062801      0.16505301      2.51609899
H       2.67169963      1.62825918      1.61074890
H       1.35423413     -1.10165302      1.12701669
H       0.67343490      0.19309124      2.10533150
H       1.26751734      0.38822095     -0.89516111
H       0.63925655      1.70186081      0.10464305
H      -1.34370191      0.26421280      0.68863446
H      -0.71982465     -1.00538699     -0.36837899
H      -0.77608881      0.64588330     -2.29733206
H      -1.53073185      1.82378948     -1.22882228
H      -2.68293728     -0.91130410     -2.00262144
H      -3.15570179      0.63872184     -2.67770180
H      -3.54122022     -0.26284588      0.22493172
H      -3.90065970      1.38231589     -0.36995482
H      -7.73441284     -0.11425070     -1.29291809
H      -8.00463321      0.07817978      1.75283002
H      -9.35674845      0.06913395      0.59459939
H      -8.18231074      1.40329134      0.61276691
H      -7.20872671     -2.23985777      0.87446146
H      -6.94420128     -2.45445098     -0.84888333
H      -8.59719678     -2.24769449     -0.23973412
