20
O=[N+]([O-])c1ccc2ccccc2c1
O       4.33887549     -0.15641750     -0.14760724
N       3.41990635      0.67396284     -0.10083242
O       3.58063495      1.90198334     -0.14831739
C       2.04711494      0.16776827      0.01902587
C       1.82065142     -1.21132398      0.07588280
C       0.51280805     -1.68767945      0.18989914
C      -0.57380193     -0.79905658      0.24786616
C      -1.89172619     -1.26804743      0.36245017
C      -2.96388174     -0.37624447      0.41921815
C      -2.73283187      0.99489007      0.36222768
C      -1.42883989      1.47905041      0.24827031
C      -0.33863713      0.59638704      0.18986131
C       0.97750799      1.07149785      0.07524362
H       2.64205225     -1.92360093      0.03321529
H       0.34608178     -2.76262977      0.23346863
H      -2.09546004     -2.33581729      0.40863477
H      -3.97967982     -0.75332247      0.50796454
H      -3.56800188      1.68952115      0.40644624
H      -1.27190448      2.55506350      0.20543739
H       1.15913176      2.14401541      0.03061612
