27
CC(C)c1ccc2ccccc2c1
C      -2.66907007     -1.74791745     -0.71166392
C      -2.47037376     -0.26422780     -0.39181860
C      -3.10027702      0.09250170      0.95691494
C      -1.00408077      0.12674500     -0.44412314
C      -0.56927587      1.07512606     -1.37780784
C       0.77566868      1.44903936     -1.44265246
C       1.72108394      0.88382459     -0.57490292
C       3.07621231      1.24945635     -0.62798189
C       4.00415569      0.67692684      0.24331679
C       3.58940626     -0.26730896      1.17761139
C       2.24592152     -0.64078509      1.24235468
C       1.29929515     -0.07422347      0.37280751
C      -0.05753071     -0.43983220      0.42542275
H      -2.20887084     -2.39539828      0.04262028
H      -2.22888162     -2.00141453     -1.68253669
H      -3.73592054     -1.99292682     -0.75320408
H      -3.01087280      0.30527476     -1.15965201
H      -2.96889432      1.15699921      1.18097466
H      -4.17529366     -0.11765405      0.94697638
H      -2.65791533     -0.47884294      1.78022483
H      -1.27475197      1.53445927     -2.06676414
H       1.07971717      2.18861742     -2.17982130
H       3.41849542      1.98568123     -1.35156942
H       5.04963475      0.96896965      0.19137967
H       4.31031266     -0.71431875      1.85696012
H       1.94096144     -1.38029455      1.97921308
H      -0.37885572     -1.17847656      1.15709778
