33
O=C1OCCC1N(C(=O)C1CC1)c1cccc(Cl)c1
O      -0.65072870     -2.30693118      2.25631030
C      -0.82348982     -2.52463223      1.06577146
O      -0.77656282     -3.76588188      0.50470497
C      -0.73930868     -3.64765304     -0.91605263
C      -1.28336882     -2.28251019     -1.26535975
C      -1.16413823     -1.48304538      0.01935264
N      -0.22404422     -0.34693531      0.01844282
C       1.10281209     -0.57476932     -0.37163151
O       1.46422384     -1.61451730     -0.91519455
C       2.13450904      0.46076092     -0.04194287
C       3.60349862      0.18025964     -0.28405586
C       2.88172885      1.16609369     -1.15169248
C      -0.72856326      0.92965615      0.41316292
C      -0.41084090      2.08045393     -0.32258101
C      -0.91994464      3.32966324      0.04317542
C      -1.76068206      3.44210991      1.14746498
C      -2.09084468      2.30365597      1.87748925
Cl     -3.13142640      2.44085921      3.24153519
C      -1.58581632      1.05340519      1.51501272
H       0.29123574     -3.79194067     -1.25341986
H      -1.34917975     -4.44248352     -1.35700095
H      -0.79655328     -1.83808683     -2.13850729
H      -2.34494076     -2.38356383     -1.52645595
H      -2.17368642     -1.12034316      0.24964682
H       1.93936624      1.02019594      0.86890814
H       3.88645756     -0.77160023     -0.72088341
H       4.31583879      0.55954189      0.43953769
H       3.10846216      2.21768120     -1.02162271
H       2.68018980      0.87540533     -2.17690539
H       0.20458890      2.01833770     -1.21654986
H      -0.66785841      4.21186217     -0.54062247
H      -2.15636736      4.41391832      1.43100038
H      -1.83456611      0.19103365      2.12896285
