24
O=C(O)C1CCCCC1C(=O)O
O       3.01747990     -0.73314782     -1.08465761
C       2.19077136     -0.63687067     -0.19165512
O       2.58299232     -0.41220221      1.07339603
C       0.69232410     -0.69807892     -0.38158718
C      -0.05452744     -1.25010819      0.83848187
C      -1.54912657     -1.36680806      0.55439148
C      -2.14539665     -0.03171349      0.12255222
C      -1.38790106      0.59426064     -1.05044974
C       0.13500765      0.65174659     -0.84939239
C       0.51736101      1.78172731      0.08757848
O      -0.09789203      2.17528602      1.06283926
O       1.68153870      2.36432822     -0.25841880
H       3.56086167     -0.37069544      1.01387069
H       0.53921696     -1.42707831     -1.19129350
H       0.34408144     -2.23653076      1.10542046
H       0.09861514     -0.60739679      1.71417283
H      -2.06759701     -1.72915181      1.44927470
H      -1.71489295     -2.11227346     -0.23310968
H      -3.19524556     -0.17470912     -0.15888127
H      -2.14701574      0.65592494      0.97567741
H      -1.59557897     -0.00077655     -1.94943118
H      -1.78617974      1.59824142     -1.24121669
H       0.57339942      0.90327561     -1.82574020
H       1.80770404      3.06275085      0.41817790
