15
O=c1cnc2cncnc2[nH]1
O       3.38842665     -0.68591865      0.14565949
C       2.22962990     -0.30802253      0.07755975
C       1.93780419      1.16686379     -0.11562601
N       0.74032731      1.66405604     -0.19961002
C      -0.32781374      0.74829772     -0.10109890
C      -1.64398284      1.14928295     -0.17484503
N      -2.69712589      0.30567958     -0.08528260
C      -2.39585873     -0.99177008      0.08542634
N      -1.16279770     -1.51298046      0.17308557
C      -0.16158344     -0.62195750      0.07658193
N       1.13496127     -1.12273660      0.16272330
H       2.82819431      1.81129747     -0.18256968
H      -1.89641622      2.19648773     -0.31278814
H      -3.22937917     -1.68265916      0.15927240
H       1.25561410     -2.11592031      0.29151158
