24
C=C[C@@H](COC(C)=O)OC(C)=O
C      -2.84172027      1.78279672     -0.98519429
C      -1.58085532      1.49757558     -1.34088072
C      -0.61660834      0.57220424     -0.62871837
C       0.58732623      1.37176919     -0.09018644
O       1.64750988      0.50928010      0.36300946
C       2.40600759     -0.03403321     -0.62926018
C       3.43193178     -0.95770937     -0.04922373
O       2.28277000      0.20829957     -1.82201331
O      -1.29535830     -0.06151463      0.47635714
C      -0.87570981     -1.31156739      0.80516151
C      -1.66903193     -1.82114097      1.96958745
O       0.01157682     -1.94374579      0.25043067
H      -3.30201252      1.35503048     -0.10003244
H      -3.44712665      2.45752861     -1.58314811
H      -1.18910341      1.95748692     -2.24772653
H      -0.30024523     -0.18708204     -1.35340466
H       0.98095165      2.07709086     -0.83307329
H       0.28371288      1.96057895      0.78340827
H       4.13757971     -0.38946282      0.56160494
H       2.94238315     -1.73100409      0.54803532
H       3.98023927     -1.44484537     -0.86058884
H      -1.32940324     -2.82857042      2.22667936
H      -1.51655773     -1.17091880      2.83466647
H      -2.72825622     -1.86804634      1.70451032
