59
CCCCCOC(=O)CCCNC(=O)NC12CC3CC(CC(C3)C1)C2
C       7.60259354     -2.83169560     -0.77695393
C       7.46458190     -1.31694572     -0.79177923
C       7.50394784     -0.73999094      0.62353290
C       7.48644909      0.79254167      0.65578244
C       6.22201603      1.42489267      0.07900721
O       5.08141540      0.93437802      0.79414044
C       3.88602092      1.40012973      0.33491941
O       3.74632399      2.17409418     -0.60094574
C       2.76830655      0.81360490      1.16437636
C       1.38066244      1.22731835      0.67917283
C       1.00489282      0.57003886     -0.64995145
N      -0.34690895      0.90747809     -1.05294155
C      -1.42320631      0.26134812     -0.49084447
O      -1.33371339     -0.56626620      0.40289228
N      -2.59106391      0.68625072     -1.07446291
C      -3.92472530      0.24387257     -0.65150681
C      -4.09718882     -1.29174830     -0.77787824
C      -5.52342664     -1.71185206     -0.37968420
C      -6.53450745     -1.02488948     -1.31033558
C      -6.40070137      0.50100944     -1.19330503
C      -6.66974835      0.92615469      0.25885442
C      -5.66035127      0.24972174      1.20003198
C      -5.79194164     -1.27741551      1.07133239
C      -4.23412024      0.67120029      0.80437231
C      -4.97211272      0.91277241     -1.58279953
H       8.55351993     -3.13513897     -0.32759090
H       7.56890621     -3.22508769     -1.79773506
H       6.78981971     -3.29374543     -0.20749872
H       8.27492837     -0.88793706     -1.39226404
H       6.52055025     -1.05723697     -1.28253362
H       8.41922506     -1.07983534      1.12428259
H       6.66472218     -1.13612544      1.20783968
H       8.36141329      1.18336391      0.12349062
H       7.58251899      1.10073475      1.70444320
H       6.27933485      2.51325729      0.19872608
H       6.12572823      1.19252803     -0.98728806
H       2.85797929     -0.27821853      1.15738524
H       2.90226459      1.16996520      2.19209270
H       0.65043691      0.94607579      1.44758995
H       1.31934300      2.31836774      0.58012633
H       1.08866495     -0.52066038     -0.58190487
H       1.66493190      0.90874727     -1.45409809
H      -0.47628254      1.14350248     -2.02607955
H      -2.52977243      1.64267515     -1.39283928
H      -3.38278699     -1.82372034     -0.13957772
H      -3.88660375     -1.61152705     -1.80683163
H      -5.62439228     -2.79966535     -0.46429621
H      -6.36285964     -1.33819003     -2.34742158
H      -7.55427986     -1.33327053     -1.04925550
H      -7.12107942      0.98736821     -1.86040541
H      -6.59521214      2.01670549      0.35051051
H      -7.69216470      0.65173515      0.54628738
H      -5.86031470      0.55204258      2.23405853
H      -5.08484083     -1.77292190      1.74786202
H      -6.79757176     -1.59257320      1.37576514
H      -3.51959136      0.22105709      1.50383922
H      -4.12359188      1.75842872      0.91004496
H      -4.87858417      2.00598613     -1.53269439
H      -4.77785343      0.63731055     -2.62806496
