21
NS(=O)(=O)c1cc2c(s1)SCCC2=O
N       4.01315591     -0.71650100      0.35696688
S       3.18015216      0.55443680      1.07940340
O       3.68064622      1.75622693      0.45693133
O       3.24002078      0.30609536      2.49957283
C       1.48519231      0.40442902      0.60653596
C       0.81443003     -0.50425773     -0.18711719
C      -0.58891581     -0.22505675     -0.28389068
C      -0.91598314      0.90702518      0.43437381
S       0.42804102      1.59186194      1.22935429
S      -2.51964803      1.61142192      0.55450742
C      -3.27276437      0.83430964     -0.90652579
C      -3.03523500     -0.66525858     -0.91482691
C      -1.56448160     -1.01241113     -1.03576515
O      -1.20839490     -1.97871419     -1.70931503
H       4.42544388     -1.29533680      1.09125168
H       4.72384372     -0.32829497     -0.26622820
H       1.30498655     -1.34041993     -0.67428570
H      -2.85445536      1.30026845     -1.80571360
H      -4.34664665      1.04469393     -0.89042452
H      -3.43507137     -1.14428579     -0.01351824
H      -3.55431635     -1.10023230     -1.77709389
