26
CC(C)CC1NC(=O)CNC1=O
C      -2.95558090     -1.11459593     -1.13642015
C      -1.80877589     -0.14876762     -0.82324894
C      -2.33022440      1.01380049      0.02184170
C      -0.66103782     -0.91364272     -0.13210887
C       0.57848566     -0.07604752      0.21268988
N       1.20902960      0.49401781     -0.97766764
C       2.40181446      1.17331020     -0.84946821
O       2.70944266      2.06404339     -1.63395167
C       3.22342914      0.81408678      0.39196521
N       2.91859842     -0.52460290      0.86473104
C       1.60968250     -0.93767877      0.98649035
O       1.31801591     -1.85314049      1.74917718
H      -3.76369716     -0.60016356     -1.66730110
H      -2.60974688     -1.93595429     -1.77293631
H      -3.37337586     -1.54691673     -0.22077416
H      -1.45254825      0.25400559     -1.77854838
H      -1.56939920      1.79071525      0.14277355
H      -3.19700404      1.48328452     -0.45596203
H      -2.63598800      0.67524443      1.01749532
H      -0.35428847     -1.74694248     -0.77932959
H      -1.04961324     -1.37312973      0.78672587
H       0.31599814      0.75480064      0.87810305
H       0.62643635      0.87924292     -1.71041141
H       2.99897532      1.52792912      1.18988845
H       4.28720489      0.84300634      0.14237752
H       3.56416707     -0.99590471      1.48602809
