30
CC(=O)OC(C)(C)Cc1ccccc1
C       4.44640355      0.27950859     -0.70241488
C       3.05393950      0.64219488     -0.28399086
O       2.66576499      1.78845301     -0.11906282
O       2.31597365     -0.48733893     -0.12554547
C       0.91534445     -0.41687212      0.28911494
C       0.80905182      0.22982977      1.67772802
C       0.50491290     -1.89498913      0.41208793
C       0.07871536      0.30378768     -0.80180679
C      -1.42045339      0.30428992     -0.61083945
C      -2.03901280      1.30164210      0.15548967
C      -3.42289720      1.30099270      0.33653852
C      -4.20310987      0.30665877     -0.24968612
C      -3.60066585     -0.68560874     -1.02024308
C      -2.21674616     -0.68618989     -1.20236444
H       4.42030444     -0.24870383     -1.65881916
H       4.91549122     -0.33895803      0.06693530
H       5.03771727      1.19161940     -0.82403549
H       1.56193726     -0.18548714      2.35745475
H       0.98313472      1.30939467      1.63817367
H      -0.17749692      0.07176495      2.12538619
H       0.56948953     -2.39908274     -0.55916802
H      -0.51015327     -2.01553438      0.80260404
H       1.18821677     -2.43161007      1.08145108
H       0.31344828     -0.13851081     -1.78050082
H       0.40161642      1.34682292     -0.90523769
H      -1.44514104      2.08993361      0.61396874
H      -3.89192165      2.07921543      0.93289101
H      -5.28072840      0.30776341     -0.10958377
H      -4.20919945     -1.45869617     -1.48198016
H      -1.76393613     -1.46628980     -1.81022566
