22
Cc1cc(C)c(C)c(O)c1
C       3.14613023     -0.27043919      0.38515921
C       1.68787383     -0.02526108      0.13397684
C       0.77302220     -1.08353401      0.18393339
C      -0.60280558     -0.86971477     -0.01356440
C      -1.53721699     -2.04783868      0.04883118
C      -1.07200438      0.43329131     -0.28472307
C      -2.53861260      0.70463788     -0.49211833
C      -0.14907077      1.48867257     -0.29639687
O      -0.60241388      2.76221319     -0.50983441
C       1.21382987      1.26934677     -0.09047400
H       3.44138167     -1.26452532      0.03323155
H       3.35907085     -0.19597477      1.45597111
H       3.76313792      0.45902342     -0.15003542
H       1.13616981     -2.09057286      0.38354036
H      -1.03293838     -2.94018821      0.43497336
H      -1.91593893     -2.28194028     -0.95097436
H      -2.37675548     -1.83847354      0.71949877
H      -2.70973078      1.63229805     -1.04740007
H      -3.04363568      0.78032465      0.47586502
H      -3.00760083     -0.09034987     -1.08047149
H       0.15415209      3.36957390     -0.48745036
H       1.91395582      2.09943085     -0.10242851
