41
CNCCC=C1c2ccccc2CCc2ccccc21
C       3.99485269      0.48872383      3.84099307
N       2.67607724      0.95455323      3.43480559
C       2.46924827      0.75887656      1.99634146
C       1.06462108      1.22296758      1.58849255
C       0.84015209      1.06209370      0.10520864
C       0.01942294      0.19189418     -0.52706619
C      -0.80499062     -0.75071526      0.25774238
C      -0.22626218     -1.84193659      0.91879801
C      -1.02125070     -2.71753519      1.65829096
C      -2.39748724     -2.51207899      1.73446700
C      -2.98368440     -1.43684654      1.06494651
C      -2.19371523     -0.55260252      0.31777584
C      -2.81507850      0.59281077     -0.44198965
C      -2.72750475      0.39254238     -1.95878843
C      -1.37188513      0.41353179     -2.64677315
C      -1.40140279      0.49798737     -4.05650574
C      -0.23130955      0.48659098     -4.81467867
C       0.99780972      0.37600254     -4.18093559
C       1.05181917      0.28345188     -2.79046319
C      -0.11907350      0.31302616     -2.00426013
H       4.12490193      0.65428863      4.91493741
H       4.78642104      1.04123023      3.32454872
H       4.11995920     -0.58168229      3.64779911
H       1.96264823      0.43868963      3.95053401
H       2.59447421     -0.30032404      1.73979840
H       3.21890010      1.33039590      1.43500367
H       0.30841085      0.69191789      2.17641171
H       0.94176541      2.28605604      1.83315350
H       1.39185827      1.79046344     -0.48970851
H       0.84476616     -2.01443997      0.85553051
H      -0.56773603     -3.56144736      2.17095422
H      -3.01723022     -3.19545474      2.30932219
H      -4.06053905     -1.29849999      1.12418500
H      -2.35157722      1.54035700     -0.13986888
H      -3.87350925      0.67933410     -0.16447414
H      -3.20908149     -0.56062241     -2.21746981
H      -3.33436992      1.18804685     -2.41282192
H      -2.35622380      0.56754088     -4.57545012
H      -0.28382868      0.55307143     -5.89797466
H       1.91416287      0.35307255     -4.76405850
H       2.02546878      0.17466836     -2.31675319
