50
Cc1ccccc1NC(=O)C1=Cc2ccccc2/C(=N/Nc2ccc(Cl)cc2[N+](=O)[O-])C1=O
C       2.61990675     -2.47870447      1.45446189
C       3.91708724     -1.73441920      1.26517439
C       5.08002821     -2.27078100      1.84739471
C       6.30835899     -1.62886387      1.71239478
C       6.38899875     -0.44264941      0.99431181
C       5.24308828      0.10353752      0.40937985
C       3.99982966     -0.52789290      0.53252701
N       2.81883867     -0.00438474     -0.04554851
C       2.66101778      1.14396618     -0.79223133
O       3.55029713      1.92941723     -1.10894428
C       1.24776374      1.41290534     -1.23020719
C       1.02747716      2.46568607     -2.03683409
C      -0.29582263      2.81510971     -2.55583757
C      -0.42461743      3.84219252     -3.49966016
C      -1.68330456      4.20187293     -3.98803684
C      -2.82477093      3.54387305     -3.53456912
C      -2.71011413      2.52306710     -2.59202532
C      -1.44689399      2.15825741     -2.10797943
C      -1.30819350      1.08338884     -1.09923840
N      -2.36987956      0.64214150     -0.48017785
N      -2.21791649     -0.32761079      0.46056889
C      -3.37393529     -0.93267852      1.00757922
C      -4.64802952     -0.38749436      0.76065754
C      -5.80321106     -0.91707757      1.34817911
C      -5.70620225     -1.99493273      2.22132771
Cl     -7.12643436     -2.64192603      2.94251715
C      -4.46612990     -2.54489558      2.52059137
C      -3.31329081     -2.00603285      1.92148776
N      -2.03266729     -2.60330455      2.28701470
O      -1.15728555     -2.67519479      1.41288116
O      -1.90673905     -3.01934912      3.44754371
C       0.09937686      0.56378566     -0.84223720
O       0.26105816     -0.53904107     -0.32902887
H       1.89338544     -1.84895544      1.97805603
H       2.21336013     -2.78684326      0.48585847
H       2.75748291     -3.38501836      2.05394010
H       5.03304981     -3.19833907      2.41436379
H       7.19906858     -2.05347576      2.16743018
H       7.34376589      0.06510859      0.88498805
H       5.36132842      1.03143780     -0.14004354
H       1.98002800     -0.56343367      0.10318390
H       1.85557261      3.10091567     -2.34851693
H       0.45096030      4.37583968     -3.86558081
H      -1.77269446      5.00044352     -4.72153062
H      -3.80410610      3.82773730     -3.91315981
H      -3.60682685      2.01671035     -2.24127904
H      -1.39259786     -0.95057220      0.40380810
H      -4.75178721      0.46922909      0.09719974
H      -6.77002249     -0.47354603      1.12237922
H      -4.39765619     -3.37920573      3.21546658
