18
CC1(C#N)CCCC1=O
C       2.05365223      0.31351147      0.06648352
C       0.54908958      0.49904153     -0.08325938
C       0.21194174      1.90489938     -0.35067445
N      -0.07241549      3.01674229     -0.52373133
C      -0.21896072     -0.03807825      1.13675382
C      -1.58120711     -0.45392085      0.58820772
C      -1.26736432     -1.10459236     -0.75181947
C      -0.02090070     -0.37130341     -1.18576931
O       0.47264500     -0.49670531     -2.30063292
H       2.31586363     -0.74370595      0.18871394
H       2.59078203      0.67823408     -0.81733334
H       2.43684188      0.86088426      0.93529087
H      -0.31936858      0.69876490      1.94133082
H       0.28095368     -0.92172081      1.55479086
H      -2.10748276     -1.13654443      1.26203910
H      -2.21708151      0.42754986      0.44166268
H      -1.02886852     -2.16526692     -0.63154700
H      -2.07812005     -0.96778949     -1.47050612
