11
O=[N+]([O-])C(Cl)([N+](=O)[O-])[N+](=O)[O-]
O      -2.01732168     -0.37536806     -0.62856021
N      -1.11420586     -0.84649220      0.08197348
O      -1.17090414     -1.98389090      0.58319915
C       0.09680737     -0.03182176      0.34769058
Cl      0.57080286     -0.18762963      2.05007923
N       1.19636783     -0.50263875     -0.52988833
O       0.92386396     -1.19726834     -1.52269569
O       2.35858642     -0.17157001     -0.23364803
N      -0.19814484      1.38725572      0.03135435
O      -0.85018475      2.04452335      0.86259444
O       0.20433284      1.86490058     -1.04209896
