41
CCOC(=O)C(C)Oc1cccc(Oc2nc3ccc(Cl)cc3s2)c1
C      -5.06752925      2.71977969      1.37514502
C      -3.83588654      2.57596512      0.50097130
O      -3.87530601      1.32765998     -0.20699817
C      -3.36474564      0.24919407      0.46198507
O      -2.88909045      0.29035580      1.58821561
C      -3.47995111     -1.00139747     -0.41778637
C      -4.94186633     -1.44305040     -0.43282002
O      -2.72898863     -2.11404185      0.06255466
C      -1.38199059     -2.14665728     -0.17029531
C      -0.75031829     -3.31340888      0.27079961
C       0.62114063     -3.49646689      0.08841228
C       1.37662322     -2.50506383     -0.53337140
C       0.75824406     -1.32595416     -0.95142682
O       1.42613337     -0.32367412     -1.61461565
C       2.61879094      0.12185938     -1.20961237
N       3.17707342     -0.18730781     -0.06109864
C       4.39366033      0.45632135      0.06198785
C       5.27262129      0.35668982      1.15988660
C       6.47869889      1.06629281      1.15128823
C       6.80975952      1.86854491      0.06421675
Cl      8.29907100      2.73365196      0.07312615
C       5.95883997      1.98853425     -1.03735621
C       4.75178728      1.26987653     -1.01498116
S       3.50302957      1.20644687     -2.19810698
C      -0.62133426     -1.15264019     -0.78632223
H      -5.10251229      1.93504061      2.13718731
H      -5.07729646      3.69263710      1.87461060
H      -5.97815254      2.62130496      0.77509609
H      -2.91366533      2.67488242      1.08501920
H      -3.82498508      3.37008442     -0.25287253
H      -3.18589542     -0.75879522     -1.44613078
H      -5.28238476     -1.69826687      0.57727190
H      -5.06494612     -2.34187454     -1.04678046
H      -5.59826677     -0.65985214     -0.82490232
H      -1.33469277     -4.08944018      0.75991004
H       1.09790166     -4.41078877      0.43116463
H       2.44161719     -2.65954850     -0.68162339
H       5.00432074     -0.27048597      2.00494931
H       7.15139840      0.98463348      2.00175223
H       6.21825968      2.61620135     -1.88409129
H      -1.05916652     -0.22724182     -1.14149137
