15
Nc1ccc(Cl)cc1O
N      -2.18878382      0.51959830     -0.04013806
C      -0.80257907      0.26788563     -0.14723777
C       0.12285731      1.30659993     -0.23479258
C       1.49314404      1.02624638     -0.18503926
C       1.93457723     -0.28818643     -0.00818274
Cl      3.62289330     -0.61561104      0.05862291
C       1.02212142     -1.32945171      0.12842613
C      -0.33246219     -1.03467580      0.07089598
O      -1.24322068     -2.04630007      0.21400012
H      -2.44448373      0.58933545      0.94648761
H      -2.44036446      1.39574162     -0.49575996
H      -0.20438469      2.33657721     -0.34345164
H       2.21149871      1.83744608     -0.27245771
H       1.35113321     -2.35182078      0.28072531
H      -2.10194658     -1.61338478      0.02790167
