21
CC(=O)Nc1ccc(C=O)cc1
C      -3.95857242      0.17934205     -0.22762863
C      -2.57364243      0.60494587      0.19291547
O      -2.41034514      1.58202119      0.91466001
N      -1.59387760     -0.23677121     -0.30247508
C      -0.20091831     -0.14172811     -0.10628131
C       0.59687464     -1.12722875     -0.70448797
C       1.98719118     -1.10555422     -0.55952796
C       2.58955104     -0.09300027      0.18777053
C       4.05645252     -0.05816844      0.34896960
O       4.78609046     -0.90094978     -0.15838456
C       1.80827840      0.89440547      0.78796826
C       0.41622006      0.86705038      0.63887945
H      -3.95623208     -0.20428481     -1.25196887
H      -4.63019472      1.04194822     -0.19098393
H      -4.32232029     -0.59372803      0.45421030
H      -1.90909766     -1.01733773     -0.86493644
H       0.15164107     -1.92663086     -1.29159723
H       2.59440847     -1.87697535     -1.02898576
H       4.46707983      0.76880565      0.95224681
H       2.26035153      1.69098660      1.37343517
H      -0.15893854      1.65285212      1.11974391
