50
CC[C@]12CC[C@@H]3C4=C(CC[C@H]3[C@@H]1CCC2=O)CC(OC)=CC4
C      -3.40982136      1.95616006     -2.08942618
C      -2.86612967      0.66223235     -1.48801613
C      -2.77252868      0.65516135      0.06584473
C      -1.94400208      1.81185294      0.62567557
C      -0.45346677      1.64636869      0.27045883
C       0.13014948      0.28056378      0.72078597
C       1.60111166      0.05616030      0.37787823
C       2.08364769     -1.18075034      0.11771422
C       1.22682725     -2.42664841      0.14619681
C      -0.17625479     -2.21832411      0.71854463
C      -0.75780815     -0.89837673      0.21487718
C      -2.19243304     -0.64842124      0.67910924
C      -3.26943920     -1.69695683      0.43038961
C      -4.55700485     -0.95231216      0.81104990
C      -4.18632053      0.50810961      0.60816714
O      -4.94499119      1.44011234      0.84021447
C       3.53969048     -1.44337585     -0.20840097
C       4.44034028     -0.23386291     -0.14772206
O       5.75897936     -0.54262437     -0.40992381
C       6.71371914      0.51091979     -0.38039335
C       3.95645287      0.98750338      0.13874738
C       2.50708023      1.26818767      0.40743659
H      -3.52763629      1.83917912     -3.17205553
H      -2.72620456      2.79422141     -1.92764161
H      -4.38814952      2.21584248     -1.67605080
H      -1.88750741      0.47979571     -1.94206859
H      -3.51698967     -0.14881248     -1.83606144
H      -2.04786629      1.85278053      1.71845832
H      -2.30898312      2.78031296      0.26810482
H       0.09388606      2.46434315      0.75426929
H      -0.31270199      1.77333931     -0.80969476
H       0.08838960      0.28593356      1.82138008
H       1.14071700     -2.80369345     -0.88094084
H       1.72403851     -3.20885215      0.73235920
H      -0.80743726     -3.06487719      0.42601986
H      -0.13287841     -2.21719956      1.81530450
H      -0.72891959     -0.93309922     -0.88119563
H      -2.14961782     -0.53222392      1.77645585
H      -3.29150853     -2.01819835     -0.61627718
H      -3.13711352     -2.59046977      1.04847488
H      -5.39232052     -1.23715080      0.16783262
H      -4.80492933     -1.11028070      1.86462643
H       3.60166710     -1.87563487     -1.21494028
H       3.92714237     -2.18978911      0.49680023
H       6.76817750      0.96281239      0.61531870
H       7.69416039      0.08264089     -0.60910650
H       6.48980808      1.26430421     -1.14255332
H       4.60293490      1.85636517      0.18337543
H       2.17215563      1.99201207     -0.34434143
H       2.42988858      1.74471929      1.39206834
