14
C=C(C)C(=O)O[Zn]O
C      -1.68480817     -1.17353917     -0.05645224
C      -1.07997695      0.00525625     -0.01364344
C      -1.84655846      1.24505649     -0.37451646
C       0.31699382      0.14290060      0.37515293
O       0.83470618      1.28064445      0.39735204
O       0.98987701     -1.01639025      0.70209054
Zn      2.98286676     -0.27706352      1.22280353
O       4.47029528     -1.23425389     -0.56180454
H      -2.71414270     -1.26748967     -0.34376911
H      -1.08924497     -2.03376122      0.21236362
H      -1.58926981      2.04346078      0.35728792
H      -2.91964943      1.03074701     -0.30893219
H      -1.51025528      1.60044114     -1.35871190
H       4.83916672     -0.34600902     -0.27908941
