28
CC(=O)Nc1ccc(/C=N/NC(N)=S)cc1
C      -5.63365836      0.88843435     -0.37335803
C      -4.42605997      0.07484354      0.02138049
O      -4.55565044     -1.01133071      0.57422257
N      -3.24004823      0.68874389     -0.33987216
C      -1.92923585      0.21294475     -0.13175215
C      -0.87730510      1.01284229     -0.59901349
C       0.45283324      0.61429561     -0.43230477
C       0.74039385     -0.59255035      0.20619285
C       2.13360350     -1.04096157      0.39693543
N       3.14190177     -0.33497331     -0.00835074
N       4.36484459     -0.89265942      0.24375860
C       5.52200058     -0.26345613     -0.12257556
N       5.36688822      0.91725845     -0.76511130
S       7.01834332     -0.90485937      0.19247464
C      -0.29798383     -1.39731334      0.67597614
C      -1.62784258     -0.99283347      0.50637881
H      -5.88149437      0.68477467     -1.41832562
H      -6.48053908      0.61266328      0.26166379
H      -5.44563226      1.95780886     -0.24094354
H      -3.31740272      1.57881693     -0.81592728
H      -1.07424929      1.95729023     -1.10011112
H       1.25449199      1.24840762     -0.80292633
H       2.27351120     -2.01284095      0.90477508
H       4.43885262     -1.78425467      0.72375640
H       6.15942856      1.49051980     -1.01246590
H       4.42255513      1.27598742     -0.83242983
H      -0.09547699     -2.34098004      1.17608645
H      -2.40706947     -1.64661837      0.88683344
