13
Oc1cccc(Cl)c1Cl
O       2.49931369      0.17022322      0.00822157
C       1.13689216      0.02995919      0.00171601
C       0.63817188     -1.26872783     -0.05379797
C      -0.73943973     -1.47933026     -0.06330611
C      -1.61150302     -0.38942507     -0.01721512
C      -1.10810608      0.91577684      0.03857603
Cl     -2.24879224      2.21313634      0.09341353
C       0.27440956      1.13178169      0.04831277
Cl      0.96117821      2.71978135      0.11622606
H       2.69440008      1.12567126      0.04899059
H       1.32255686     -2.11269874     -0.08947566
H      -1.13391348     -2.49201529     -0.10659881
H      -2.68516789     -0.56413271     -0.02506290
