19
O=C([O-])CC(O)(CC(=O)[O-])C(=O)[O-].[Bi+3]
O      -1.91675490     -0.92257356      1.38719632
C      -1.80704633     -1.09436644      0.16236109
O      -2.68116156     -2.04374862     -0.40464702
C      -0.89323062     -0.44426113     -0.76595716
C       0.02818798      0.57692996     -0.18528969
O       0.83017332      1.08026801     -1.24152730
C       0.98970036     -0.07622902      0.78525880
C       1.81746864     -1.11443076      0.12320355
O       1.36966606     -2.27545823     -0.08990265
O       3.11149883     -0.85743479     -0.28916851
C      -0.63427966      1.72675758      0.41778248
O      -1.42188493      1.64694652      1.39645832
O      -0.44888076      3.04461111     -0.04917236
Bi      0.00000000      0.00000000      0.00000000
H      -1.51423970      0.04339570     -1.57432404
H      -0.32105911     -1.22389781     -1.30689842
H       1.39839603      1.78103267     -0.88212570
H       0.44108342     -0.53897301      1.64379930
H       1.65236294      0.69143183      1.23296423
