27
O=[N+]([O-])c1cc([N+](=O)[O-])c(-c2ccccc2)cc1O
O      -4.86792187     -0.46930768     -1.36143286
N      -4.38889571      0.04341206     -0.34192857
O      -5.05514897      0.55316721      0.57243108
C      -2.93060775      0.05248233     -0.19950580
C      -2.14960995     -0.52272312     -1.21005805
C      -0.75463725     -0.50959904     -1.07060816
N       0.02139570     -1.09326254     -2.14548702
O       0.11918046     -2.32681944     -2.15133512
O       0.47597105     -0.31627555     -2.99344435
C      -0.10446104      0.05067077      0.04202452
C       1.35440667      0.05888004      0.21046017
C       2.08191697      1.25246976      0.08277944
C       3.46931747      1.26392494      0.24291462
C       4.14743206      0.08307669      0.53544148
C       3.44018482     -1.10927887      0.66936056
C       2.05269323     -1.12166575      0.50983477
C      -0.92012251      0.62180913      1.03526512
C      -2.31646641      0.62624045      0.92285673
O      -2.97541812      1.21552252      1.96701708
H      -2.60239788     -0.97145619     -2.09310612
H       1.57316076      2.18557855     -0.15199705
H       4.02093053      2.19451613      0.13503858
H       5.22772686      0.09148652      0.65671264
H       3.96883011     -2.03189938      0.89616064
H       1.52258007     -2.06598253      0.62220289
H      -0.46415872      1.06698320      1.92060087
H      -3.94588056      1.17804977      1.82638175
