14
O=C([O-])c1cc(Br)ccc1Cl
O       2.71356360     -1.50118249      0.54893141
C       2.35843929     -0.41778811     -0.01160240
O       3.11051173      0.39071301     -0.63455650
C       0.89187318     -0.11463418      0.01506490
C      -0.00363502     -1.12682129     -0.39002628
C      -1.37719218     -0.89831371     -0.40655351
Br     -2.55697534     -2.26731337     -0.96200796
C      -1.88779219      0.33560601     -0.01615070
C      -1.01237453      1.33982417      0.40171214
C       0.37304043      1.11915593      0.42293278
Cl      1.35340777      2.40888924      1.02586434
H       0.40641914     -2.09058568     -0.68914495
H      -2.95659395      0.52407991     -0.02484418
H      -1.41269194      2.29837056      0.72038089
