45
O=C(O)CC(O)(CC(=O)O)C(=O)O.O=C(O)CC(O)(CC(=O)O)C(=O)O.[Mg].[Mg].[Mg]
O       1.57580636      0.18040739      2.37503892
C       1.66904345      0.46131193      1.18734574
O       2.02606122      1.68174845      0.75009850
C       1.28834552     -0.51192356      0.11352459
C      -0.23163363     -0.69423488      0.08162713
O      -0.65490633     -1.44506351      1.25375851
C      -1.09130489      0.57023265     -0.00493612
C      -0.68081057      1.47316372     -1.13520436
O       0.45622411      1.87431941     -1.34014858
O      -1.71045502      1.84273979     -1.91147301
C      -0.56536295     -1.58535019     -1.12218053
O      -0.32266155     -1.30175501     -2.28486503
O      -1.17128488     -2.73860522     -0.74693303
O      -0.82362955     -0.39569939      1.99188385
C      -1.33317126     -0.97264920      1.04745880
O      -2.39307017     -1.78440670      1.24017909
C      -0.91402994     -0.93543872     -0.39591273
C      -0.00430587      0.23826010     -0.77592178
O       0.54181261     -0.07591343     -2.08515281
C       1.17542262      0.60279868      0.13101492
C       2.02470283     -0.56510281      0.54757415
O       1.72965410     -1.74648972      0.56438757
O       3.23936555     -0.16601868      0.98089987
C      -0.84652588      1.50531853     -0.96949114
O      -0.74471564      2.26348034     -1.92491100
O      -1.71078207      1.77387270      0.02183850
Mg      0.00000000      0.00000000      0.00000000
Mg      0.00000000      0.00000000      0.00000000
Mg      0.00000000      0.00000000      0.00000000
H       1.87865975      1.83362359     -0.21532255
H       1.78671302     -1.46017073      0.35509729
H       1.70670683     -0.20216372     -0.84973596
H      -0.18226369     -1.07690991      2.03425249
H      -2.14560427      0.29010100     -0.13068802
H      -1.05079949      1.14697763      0.92641692
H      -1.32875138      2.38398231     -2.63468531
H      -1.25172161     -2.72243116      0.23948543
H      -2.54319328     -1.75678983      2.20828297
H      -1.82358215     -0.89387827     -1.01076041
H      -0.43551586     -1.89208027     -0.63484433
H       0.64597880      0.77020889     -2.56762894
H       0.84640090      1.11975765      1.03877238
H       1.83153675      1.29658484     -0.41286356
H       3.68095420     -1.00098785      1.24386303
H      -2.14330669      2.61517313     -0.23866843
