25
Oc1c2ccccc2cc2ccccc12
O       0.03088435     -2.63604367      0.43161618
C       0.03264212     -1.27446107      0.21067177
C      -1.23172500     -0.68213287     -0.03039419
C      -2.43800170     -1.41680904     -0.04930780
C      -3.66577288     -0.79787171     -0.29048046
C      -3.71499437      0.57141911     -0.51847944
C      -2.53730285      1.31857222     -0.50487392
C      -1.29472127      0.70632056     -0.26306494
C      -0.11264516      1.46035298     -0.25004279
C       1.14009551      0.87328994     -0.01118318
C       2.29510198      1.67417620     -0.00888918
C       3.55309185      1.12412749      0.22455577
C       3.67275994     -0.23739588      0.45931346
C       2.53385901     -1.04804465      0.46042763
C       1.23805125     -0.51809571      0.22595315
H       0.93283762     -2.94550357      0.58593068
H      -2.41993983     -2.49074590      0.12714263
H      -4.57792400     -1.38816921     -0.29913012
H      -4.66748801      1.05920541     -0.70682564
H      -2.59656432      2.38970595     -0.68561582
H      -0.17055623      2.53297123     -0.43084669
H       2.22210457      2.74475433     -0.19109742
H       4.43480130      1.75934487      0.22243336
H       4.65143433     -0.67388151      0.64231367
H       2.68997177     -2.10508549      0.64987329
