29
CNC(=O)Oc1cccc2c1OC(C)(C)O2
C       4.28185209      1.25867887      1.04125607
N       3.47036669      0.07689431      0.94432562
C       2.45487111     -0.02568100      0.03212302
O       2.23223616      0.79235186     -0.85050674
O       1.74714664     -1.19087076      0.27487351
C       0.62489143     -1.31581666     -0.53561089
C       0.65107582     -2.19635396     -1.61860213
C      -0.49473437     -2.35264276     -2.41749845
C      -1.66541345     -1.64214840     -2.12842696
C      -1.65565756     -0.79472108     -1.03852390
C      -0.54127010     -0.63610426     -0.25034442
O      -0.75220831      0.22781065      0.78016303
C      -2.11803637      0.63798361      0.52730744
C      -2.12919191      2.14227192      0.25586399
C      -2.95361652      0.30642563      1.76295840
O      -2.70475709     -0.03914602     -0.61226340
H       4.52429068      1.63802758      0.04495013
H       5.19906954      1.00818856      1.57896696
H       3.72553270      2.02034313      1.59394187
H       3.44210079     -0.58413138      1.70776694
H       1.55487681     -2.75282489     -1.84940716
H      -0.47026016     -3.03026476     -3.26778936
H      -2.55463126     -1.75314223     -2.73895531
H      -1.52832682      2.37663528     -0.63050493
H      -1.69926876      2.70066586      1.09398840
H      -3.14451853      2.50399784      0.06271882
H      -2.55414009      0.79682056      2.65684134
H      -2.94251200     -0.77292882      1.95397588
H      -3.99976714      0.59968133      1.62641221
