11
ClCC(Cl)(Cl)CCl
Cl      1.72549373      1.64279422     -0.25198839
C       1.29109549     -0.09188658     -0.22654113
C      -0.05106978     -0.38321556      0.46200061
Cl     -0.35459172     -2.16740065      0.37331740
Cl      0.06718685      0.01078463      2.22667791
C      -1.25299090      0.37781128     -0.11816628
Cl     -1.49074859      0.11871859     -1.87167990
H       2.11332519     -0.61246556      0.27733708
H       1.29033723     -0.42765051     -1.26848505
H      -1.15296969      1.45838735      0.02583342
H      -2.18506782      0.07412279      0.37169431
