31
Cl/C=C/C[N+]12CN3CN(CN(C3)C1)C2.[Cl-]
Cl      4.84918310      0.29918060     -1.92532913
C       3.68279847     -0.43638928     -0.90958817
C       2.84678847      0.28260099     -0.15275257
C       1.82404489     -0.31006773      0.76053379
N       0.37689021     -0.07474372      0.37194678
C      -0.51859643     -0.75481552      1.35628354
N      -1.90487998     -0.55832412      1.01954252
C      -2.17367599     -1.10823772     -0.29891289
N      -1.34560424     -0.43027739     -1.28160725
C      -1.65542467      0.99097161     -1.27704561
N      -1.38783902      1.53986357      0.04336107
C      -2.21645255      0.86135922      1.02525940
C       0.00638418      1.36800118      0.37013490
C       0.04982456     -0.62638489     -0.97310214
Cl      0.00000000      0.00000000      0.00000000
H       3.71829122     -1.51779128     -0.96978482
H       2.94407687      1.36668723     -0.16040766
H       1.95926180     -1.39693426      0.83543009
H       1.96076445      0.10517776      1.76689029
H      -0.26408775     -1.82386000      1.37759622
H      -0.29309577     -0.36396661      2.35853172
H      -3.23797934     -1.00828098     -0.55189943
H      -1.98609256     -2.19046298     -0.31376232
H      -2.70260021      1.16049208     -1.56246792
H      -1.07103903      1.51868860     -2.04300839
H      -3.28207379      1.02624483      0.81550457
H      -2.06179401      1.28870005      2.02530047
H       0.63923145      1.89737058     -0.35392555
H       0.24260213      1.78905070      1.35723084
H       0.68313639     -0.13537111     -1.72362611
H       0.31795714     -1.69196261     -0.98632622
