48
CC(Oc1ccc(Oc2cnc3cc(Cl)ccc3n2)cc1)C(=O)OC1CCCO1
C      -3.61070861     -0.88256803     -1.88623125
C      -2.64204787     -0.29274644     -0.86616529
O      -1.42795699     -1.04879671     -0.96676350
C      -0.33056652     -0.27089453     -0.71780945
C       0.28555322     -0.35443062      0.52938524
C       1.42141105      0.41211159      0.78897657
C       1.94614346      1.22838016     -0.21555400
O       3.03089802      2.03067794      0.03719532
C       4.27121520      1.40599046      0.04377295
C       5.35381748      2.16113610      0.45652391
N       6.61484315      1.66860401      0.49160219
C       6.76421120      0.38970849      0.09578485
C       8.02770861     -0.18376626      0.10645732
C       8.21396527     -1.50313315     -0.29726128
Cl      9.78967340     -2.19147353     -0.27546813
C       7.13266835     -2.26689721     -0.71823653
C       5.85832129     -1.69819058     -0.73210710
C       5.65258496     -0.38419423     -0.33307222
N       4.40794047      0.12387744     -0.36234974
C       1.33207601      1.30623487     -1.46657016
C       0.19578590      0.53941651     -1.72444289
C      -3.26083125     -0.38272331      0.53318999
O      -2.86502966     -1.09333844      1.44814421
O      -4.33182081      0.45713574      0.61707001
C      -4.97184179      0.48285295      1.89613119
C      -5.94502044     -0.67791126      2.03697694
C      -7.17321998     -0.13672443      1.34630466
C      -7.14692386      1.31912167      1.75557953
O      -5.77557068      1.67420879      1.97394243
H      -3.82384158     -1.93351948     -1.65920636
H      -3.17401803     -0.85459996     -2.89039531
H      -4.56113908     -0.34005799     -1.90439927
H      -2.47569730      0.76808127     -1.09841045
H      -0.11827012     -1.00993727      1.29637959
H       1.89848904      0.36205877      1.76289499
H       5.23747159      3.19113493      0.77341070
H       8.87378089      0.41374584      0.43551264
H       7.26857013     -3.29779762     -1.03465336
H       5.00621156     -2.28983506     -1.05980846
H       1.74534438      1.94732486     -2.23916738
H      -0.27018527      0.57061504     -2.70452215
H      -4.23128377      0.52092903      2.70278157
H      -6.17147156     -0.84947881      3.09587802
H      -5.59737692     -1.61392354      1.59238717
H      -7.06015414     -0.22344395      0.25909950
H      -8.09846328     -0.64339851      1.63324543
H      -7.68412644      1.47486026      2.69707051
H      -7.58111871      1.97557418      0.99597309
