44
O=C1NC(=O)C2(CCCCCCCCCCC2)C(=O)N1
O       5.62222039     -1.37692652     -0.32605133
C       4.49233754     -0.92681441     -0.16749002
N       3.51569818     -1.12284006     -1.09218774
C       2.52711716     -0.19776684     -1.29074387
O       2.14208553      0.05287944     -2.42792114
C       1.97211766      0.43640450     -0.01783865
C       1.19117931      1.75636843     -0.28271669
C       0.06940492      1.74876457     -1.33357259
C      -1.16219736      2.55228350     -0.89080432
C      -2.06894535      1.76665841      0.06552954
C      -2.97935184      0.78900144     -0.68435942
C      -3.69713729     -0.21993779      0.22194551
C      -2.97195356     -1.56860586      0.32161252
C      -1.89897863     -1.63389260      1.41491253
C      -0.64803311     -2.40195924      0.96906555
C       0.26984184     -1.59291696      0.03822055
C       1.12477480     -0.57969420      0.81321828
C       3.17048106      0.79049545      0.87497945
O       3.23302938      1.78967061      1.58678455
N       4.19045314     -0.12361323      0.88754212
H       3.86360395     -1.54344678     -1.94469710
H       1.91047566      2.52598289     -0.60008203
H       0.79753708      2.12310927      0.67502017
H       0.46239686      2.21622888     -2.24585592
H      -0.22576818      0.74054856     -1.62053693
H      -1.73789614      2.84933643     -1.77589983
H      -0.83670527      3.48046459     -0.40559779
H      -2.70313457      2.47549344      0.61220747
H      -1.46109284      1.25360888      0.81237166
H      -3.74277119      1.38516130     -1.20188297
H      -2.43036224      0.26097783     -1.47105595
H      -3.89780113      0.20011692      1.21396626
H      -4.67605638     -0.41987748     -0.23348402
H      -3.72154637     -2.33693569      0.55394666
H      -2.56751970     -1.84467559     -0.65895716
H      -1.62929484     -0.64247175      1.78304429
H      -2.33038293     -2.15928514      2.27691630
H      -0.08188891     -2.71284809      1.85556627
H      -0.95508495     -3.32331202      0.45887159
H      -0.32638504     -1.10999471     -0.73564550
H       0.93644534     -2.29929396     -0.47042450
H       0.49303147     -0.01320038      1.50753618
H       1.78461859     -1.16751553      1.46713806
H       4.98143793      0.12426949      1.46740998
