30
O=[Mo](=O)([O-])[O-].O=[Mo](=O)([O-])[O-].[NH4+].[NH4+].[NH4+].[NH4+]
O       1.68165466     -0.62868830     -0.42326867
Mo      0.07400484      0.57718686     -0.02032446
O      -0.07724105      1.62517809      0.37177839
O      -0.52526272     -1.07974736      1.46724000
O      -1.15315573     -0.49392929     -1.39542525
O      -1.18483461      0.71648404     -0.91598738
Mo     -0.75046279      0.08511906     -0.00333526
O       1.31389605      1.30832169      0.57715893
O      -0.46499697     -0.96344490      1.43239233
O       1.08639831     -1.14647989     -1.09022862
N       0.00745504     -0.01594530      0.00704318
N       0.00138394     -0.01095386     -0.00475202
N       0.00586954      0.00547999     -0.01976151
N       0.00068409      0.02073936      0.01835699
H      -0.47260969     -0.38389903     -0.83913968
H      -0.15516093      1.00663216      0.02540482
H      -0.41893757     -0.42519874      0.86541250
H       1.03925315     -0.18158908     -0.05872081
H      -0.77265578     -0.43302011     -0.56207462
H       0.33247233      0.87698226     -0.43202260
H      -0.37261302      0.21829020      0.93413087
H       0.81141254     -0.65129848      0.06471837
H      -0.14763932     -0.33213412      0.95591202
H      -0.57026813      0.86594338     -0.16086616
H      -0.31306929     -0.74683368     -0.65213042
H       1.02510719      0.20754443     -0.12315393
H      -0.51258474     -0.60478144     -0.64889239
H      -0.54393844      0.89128024      0.13246631
H       0.12635624     -0.51509111      0.89246250
H       0.92948285      0.20785295     -0.39439341
