62
CC(=O)OCC(=O)C1(O)C(C)CC2C3CCC4=CC(=O)C=CC4(C)C3(F)C(O)CC21C
C       5.51996618     -2.64692773      2.52387460
C       4.56707266     -1.53423585      2.21392551
O       3.39027672     -1.51371020      2.54790814
O       5.20299381     -0.55267597      1.51679316
C       4.34692743      0.51161332      1.09855822
C       3.43133124      0.11801389     -0.06246419
O       3.61959696     -0.92326534     -0.69885372
C       2.28557250      1.09947274     -0.41785449
O       2.66445721      2.44090966     -0.09167230
C       1.91294862      1.02242260     -1.91909883
C       2.86887487      1.71247215     -2.88851679
C       0.49830733      1.60674989     -1.99850614
C      -0.09334110      1.57876462     -0.56761706
C      -1.57901841      1.13062687     -0.57030855
C      -2.36746845      1.76742646      0.59359579
C      -3.84335450      1.37396077      0.59883544
C      -4.00924350     -0.12273594      0.53208200
C      -4.71666870     -0.77992218      1.46833427
C      -4.84902284     -2.25231624      1.45565092
O      -5.51154352     -2.84042716      2.30141276
C      -4.15231330     -2.98873337      0.38196433
C      -3.44740359     -2.33765467     -0.55282848
C      -3.28595985     -0.82163820     -0.62026841
C      -3.97677090     -0.41270017     -1.94819783
C      -1.76101530     -0.41104372     -0.64705184
F      -1.26928257     -0.80940665     -1.87482696
C      -0.88039147     -1.13791790      0.40394204
O      -1.30202866     -0.91919425      1.74379181
C       0.59762115     -0.76304641      0.23888271
C       0.91647071      0.75629410      0.28968002
C       0.91889323      1.23989504      1.75532044
H       6.35602350     -2.26560106      3.11613405
H       5.00282907     -3.41517843      3.10638761
H       5.87918596     -3.09562133      1.59410430
H       4.99533088      1.31987550      0.74487740
H       3.77683600      0.89255374      1.94901923
H       3.36493104      2.73211072     -0.70007293
H       1.85702763     -0.02623475     -2.23667488
H       2.88376511      2.79874119     -2.75381546
H       2.56245258      1.51917202     -3.92246752
H       3.88907177      1.33539872     -2.76563182
H      -0.09721723      1.03895543     -2.72066012
H       0.51070034      2.64343819     -2.35735354
H      -0.06630955      2.62280172     -0.22136481
H      -2.01231099      1.55664780     -1.48571553
H      -1.93758732      1.50130368      1.56034046
H      -2.29999475      2.86038517      0.52330620
H      -4.31468282      1.78586651      1.49982787
H      -4.35612514      1.84010985     -0.25025890
H      -5.21185065     -0.27758479      2.29111793
H      -4.24890828     -4.06724067      0.39546392
H      -2.95369926     -2.91817015     -1.33078087
H      -5.04299984     -0.67417981     -1.94010937
H      -3.91488665      0.66095594     -2.14893984
H      -3.52535319     -0.92297274     -2.80811020
H      -0.94106211     -2.21867188      0.22970641
H      -0.72143370     -1.44395682      2.32462432
H       0.92420280     -1.19119487     -0.71471846
H       1.18088569     -1.27668243      1.01293515
H       1.65123241      0.68981818      2.35192303
H      -0.04043931      1.09783755      2.25077353
H       1.15390207      2.30624765      1.83698025
