20
CN1C=CC=C/C1=C\[NH+]=O.[I-]
C      -1.11528426      1.96455938     -0.16499283
N      -0.84704153      0.52852393     -0.08252237
C      -1.91630812     -0.40497614     -0.11635904
C      -1.70017813     -1.70614804     -0.04331924
C      -0.34167246     -2.22197574      0.07528568
C       0.71841778     -1.40961484      0.11385369
C       0.47956485      0.03076581      0.03302463
C       1.49140579      0.90545058      0.06521338
N       2.80271546      0.38152129      0.18085851
O       3.59325655      0.39762091     -0.77148756
I       0.00000000      0.00000000      0.00000000
H      -0.80799618      2.39674280     -1.11967350
H      -0.58141185      2.51495555      0.64919405
H      -2.19403426      2.15429383      0.01364968
H      -2.92760653      0.01182946     -0.20610846
H      -2.52285297     -2.40733570     -0.07011324
H      -0.20619117     -3.28629208      0.13210553
H       1.73011748     -1.79021922      0.20203357
H       1.27102717      1.96015568      0.00257871
H       3.07407238     -0.01985746      1.10677879
