12
O=C1CCC(=O)N1
O       2.09805192     -0.13267219      1.35141514
C       1.08294978      0.00762586      0.69048753
C       0.18730417     -1.10024160      0.22175574
C      -0.91691105     -0.39084461     -0.54891230
C      -0.55925074      1.06264916     -0.45566089
O      -1.19324771      1.98180712     -0.94569924
N       0.58272731      1.19090994      0.26129482
H      -0.21287878     -1.64532542      1.08136854
H       0.74666159     -1.78498458     -0.42201769
H      -0.93650302     -0.70364662     -1.59675208
H      -1.89604144     -0.56398549     -0.09336487
H       1.01713796      2.07870842      0.45608529
