40
CC12CCC3C(=CCc4cc(O)ccc43)C1CCC2=O
C       2.81388205      0.87573219      1.56781950
C       2.48755802      0.50313248      0.12058616
C       1.66562795      1.60093460     -0.57855381
C       0.18251953      1.57200676     -0.19932642
C      -0.45255792      0.19744158     -0.48934572
C       0.33408224     -0.86388626      0.26302486
C      -0.24378621     -1.69520904      1.14781443
C      -1.70232194     -1.68675518      1.48535754
C      -2.52742372     -0.68435399      0.72026077
C      -3.91434080     -0.64969199      0.94447480
C      -4.71858339      0.23917684      0.24335394
O      -6.05705848      0.22606082      0.50176469
C      -4.16944043      1.10271761     -0.69321876
C      -2.79202891      1.07785666     -0.92088860
C      -1.95066052      0.20019918     -0.20945055
C       1.82734554     -0.89316237      0.02802839
C       2.23945834     -1.42205380     -1.35053804
C       3.70660267     -1.02795592     -1.46882671
C       3.76031901      0.25760247     -0.67967403
O       4.72582472      1.01192178     -0.69031853
H       3.48962159      0.14261194      2.02331470
H       1.91146404      0.92926936      2.18513009
H       3.31772885      1.84745943      1.62103415
H       2.08036795      2.58975593     -0.34456465
H       1.74689302      1.50167554     -1.66957020
H       0.06243930      1.83141522      0.86084990
H      -0.32432006      2.36295248     -0.76462648
H      -0.35158083     -0.02156770     -1.56135000
H       0.35554694     -2.42639548      1.68516830
H      -2.10162050     -2.68998007      1.29234063
H      -1.80597376     -1.48232096      2.55786880
H      -4.37187594     -1.32327337      1.66507818
H      -6.48478574      0.89778418     -0.05386927
H      -4.78853800      1.79455563     -1.25480373
H      -2.37624788      1.75057746     -1.66798918
H       2.29781855     -1.55225183      0.77414257
H       1.66308254     -0.95640791     -2.15826827
H       2.10653425     -2.50575734     -1.43401927
H       4.35770175     -1.76493084     -0.99008566
H       4.00072615     -0.86688606     -2.50812452
