34
COc1ccc([NH2+]CCO)cc1[NH3+].O=S(=O)([O-])[O-]
C      -4.49599695      0.54796900      0.09464667
O      -3.47446334     -0.01312203     -0.73524071
C      -2.17644925      0.17880414     -0.34182305
C      -1.75206977      0.86562178      0.79478126
C      -0.38264732      0.98565832      1.07106628
C       0.56089241      0.41342699      0.21485830
N       1.97116133      0.57369716      0.51143934
C       2.51050156     -0.41800408      1.51143888
C       4.02876045     -0.44246226      1.32101920
O       4.26815044     -0.38017094     -0.09322670
C       0.15317938     -0.27781942     -0.93219026
C      -1.21532553     -0.38663426     -1.19743342
N      -1.68949287     -1.08792933     -2.37724165
O      -0.18704200     -1.09337685     -0.97103836
S       0.00000005      0.00000006      0.00000007
O      -0.36445114     -0.47234845      1.34812299
O       1.41107678      0.42684333     -0.00635794
O      -0.85958369      1.13888190     -0.37072676
H      -4.47308020      0.10452067      1.09529483
H      -4.40685300      1.63813766      0.14017324
H      -5.46193731      0.30711357     -0.35905216
H      -2.45777947      1.32375839      1.48645039
H      -0.08043015      1.53332964      1.96361922
H       2.56235827      0.44114729     -0.33313525
H       2.17552915      1.53633639      0.81424717
H       2.20781570     -0.11570529      2.51779648
H       2.08799830     -1.39588139      1.25534494
H       4.49667026      0.43145733      1.78415005
H       4.46504072     -1.35695865      1.73243412
H       5.23225704     -0.52280313     -0.21854528
H       0.88513109     -0.71872084     -1.60335470
H      -1.43290747     -2.08161611     -2.37078313
H      -1.38085089     -0.63827837     -3.24698398
H      -2.72516257     -1.04487222     -2.36964726
