18
Clc1ccc(Cl)c2ccccc12
Cl      1.90093815     -2.81081244     -0.21739421
C       1.47462722     -1.13278791     -0.10693381
C       2.53472978     -0.22395598     -0.08230663
C       2.27749430      1.13788559      0.00491206
C       0.95937170      1.59504820      0.06778495
Cl      0.74419217      3.31316906      0.17487012
C      -0.13850836      0.69607411      0.04477276
C      -1.48830045      1.12279856      0.10671669
C      -2.55042503      0.21903323      0.08244736
C      -2.29389731     -1.13905696     -0.00454053
C      -0.97574043     -1.59076507     -0.06709186
C       0.12493872     -0.69865204     -0.04456188
H       3.56326828     -0.57346662     -0.13092567
H       3.10733019      1.84033464      0.02365857
H      -1.73320868      2.18125897      0.17573628
H      -3.57427721      0.58091599      0.13168056
H      -3.11485890     -1.85130323     -0.02410504
H      -0.81767414     -2.66571810     -0.13471972
