31
O=C(O)c1cc(Oc2ccc(C(F)(F)F)cc2Cl)ccc1[N+](=O)[O-]
O      -1.93148551     -2.58929959     -1.49891545
C      -2.67208742     -2.08821818     -0.67655134
O      -3.76405216     -2.71023558     -0.20891612
C      -2.44422509     -0.80948838      0.01734210
C      -1.12324612     -0.50399896      0.37563189
C      -0.84312762      0.67791143      1.07073999
O       0.42072542      1.02854547      1.49217531
C       1.46605478      0.76294015      0.63657350
C       1.51968799      1.36964610     -0.62238706
C       2.60438566      1.12516386     -1.46805758
C       3.65061081      0.28079134     -1.06250758
C       4.83682775      0.03405024     -1.96411846
F       5.85908298      0.89668280     -1.71510452
F       4.54159303      0.17145783     -3.28604378
F       5.35671595     -1.21645593     -1.82545308
C       3.60025559     -0.29880734      0.21674507
C       2.51596740     -0.05511138      1.06330125
Cl      2.50024778     -0.79559884      2.62108108
C      -1.87823513      1.54234251      1.43979218
C      -3.19417227      1.25711092      1.07295003
C      -3.46372753      0.08540739      0.35191261
N      -4.82408470     -0.13263997     -0.10008478
O      -4.99539577     -0.28982632     -1.31652298
O      -5.71731069     -0.08110930      0.75578153
H      -3.81867732     -3.54672616     -0.72044975
H      -0.32688204     -1.20364285      0.12897385
H       0.72538634      2.03769231     -0.94642394
H       2.63310078      1.60101390     -2.44840247
H       4.41297491     -0.94254157      0.55153076
H      -1.65499294      2.44535081      2.00481862
H      -3.99191486      1.94759330      1.34058622
