32
CN(C)C(=O)c1cc(N2CC2)c([N+](=O)[O-])cc1[N+](=O)[O-]
C       1.57860615     -1.74994208     -1.66302815
N       2.32275129     -1.28369996     -0.49965841
C       3.66839625     -1.81705742     -0.36057230
C       2.04503145     -0.09400963      0.16617646
O       2.82164071      0.49631417      0.91009798
C       0.71131547      0.50831988      0.02536138
C      -0.37972497     -0.13452452      0.63874183
C      -1.66143187      0.44356882      0.62599642
N      -2.81136393     -0.15659224      1.19881376
C      -2.69850707     -0.86310396      2.48002681
C      -2.96543830     -1.61384489      1.21487693
C      -1.78383869      1.70013631     -0.00450376
N      -3.07727624      2.34903199     -0.05118502
O      -3.43433729      2.96927802      0.95824867
O      -3.68735674      2.28824429     -1.12706804
C      -0.71153889      2.36869524     -0.61081143
C       0.53948642      1.75201997     -0.58284121
N       1.65023669      2.40616694     -1.24792929
O       1.84196894      3.59807107     -0.97772413
O       2.26624310      1.74512291     -2.09396909
H       2.07866944     -1.38340740     -2.56475625
H       1.57047277     -2.84374366     -1.66624478
H       0.54804507     -1.39229268     -1.66955146
H       3.63748597     -2.90656192     -0.45225690
H       4.29778039     -1.39560923     -1.15020681
H       4.09743033     -1.55883327      0.61191254
H      -0.20089361     -1.08495553      1.13727937
H      -3.52768266     -0.65720242      3.14460741
H      -1.71935434     -0.89695259      2.93474227
H      -2.18203691     -2.19739851      0.75560978
H      -3.97995921     -1.93068877      1.00982598
H      -0.85481972      3.33545106     -1.09001056
