46
COc1cncc(-c2cccc(-c3cn4ccc(OC)c(C(N)=O)c4n3)c2)c1
C      -8.15221434     -0.81628235     -1.72921583
O      -6.97848081     -0.03803519     -1.52663675
C      -6.04647871     -0.55024077     -0.67068305
C      -6.11614844     -1.75039152      0.02335430
N      -5.15059889     -2.20039289      0.85972062
C      -4.06307084     -1.40678819      1.01033553
C      -3.87413010     -0.18403930      0.36515674
C      -2.66264165      0.62303613      0.56860989
C      -2.75051635      1.97259309      0.94340337
C      -1.60100903      2.73705605      1.14172985
C      -0.34245315      2.16277592      0.96451180
C      -0.21410814      0.82040444      0.58476629
C       1.11506374      0.25284995      0.40426605
C       1.42091956     -0.98078727     -0.12815921
N       2.78947876     -1.07319603     -0.10082971
C       3.60188757     -2.11879148     -0.51899200
C       4.93196533     -1.99457464     -0.39968788
C       5.49068398     -0.76240656      0.15214597
O       6.85993168     -0.79878765      0.28868691
C       7.51603521     -0.31120635     -0.88218407
C       4.69472169      0.24846996      0.58989994
C       5.28312728      1.48500499      1.20756730
N       4.39809200      2.34976763      1.78071537
O       6.47762615      1.76118682      1.20721890
C       3.26972168      0.10988282      0.44838283
N       2.26962250      0.91931969      0.75608508
C      -1.38162048      0.06352649      0.39262770
C      -4.90507095      0.23211488     -0.48876822
H      -8.79467650     -0.27595331     -2.43113654
H      -7.90948675     -1.78602637     -2.17669751
H      -8.70872005     -0.94107634     -0.79415720
H      -6.96450326     -2.42104423     -0.05845840
H      -3.31980725     -1.79584272      1.70265833
H      -3.72256944      2.43813047      1.09747761
H      -1.68470015      3.78009527      1.43657269
H       0.54349383      2.77485068      1.12199478
H       0.81215641     -1.78215881     -0.51991869
H       3.12239710     -3.00332383     -0.91877804
H       5.60848196     -2.79078152     -0.69280763
H       7.36912137     -0.99920469     -1.72157179
H       7.16803559      0.69073892     -1.15590387
H       8.58744910     -0.25637034     -0.66953983
H       3.39380090      2.20291721      1.70544354
H       4.74572003      3.22066418      2.15359934
H      -1.30662745     -0.97929716      0.09261730
H      -4.81990071      1.17161392     -1.03119855
