42
S=C(SSSSSSC(=S)N1CCCCC1)N1CCCCC1
S      -3.96229887      2.20975085     -3.55856582
C      -3.56464529      1.95341897     -1.93808034
S      -3.08626552      3.35955004     -0.96673163
S      -1.07680643      3.46483984     -1.39483900
S      -0.18354801      2.08951091     -0.16633286
S       0.03789930      3.03689428      1.63818957
S       1.77596150      4.11198538      1.47643336
S       3.28025545      2.83864821      2.06746388
C       3.60674628      1.94474816      0.56992431
S       4.52422316      2.70386436     -0.62656421
N       3.09576290      0.63506756      0.49117513
C       2.54804849     -0.11953768      1.63047606
C       3.53177700     -1.21299515      2.04843688
C       3.87463907     -2.12640913      0.86947760
C       4.32150393     -1.32109560     -0.35257632
C       3.31034004     -0.22431170     -0.68396391
N      -3.57554980      0.70092858     -1.27883446
C      -3.79665927      0.59073137      0.17560992
C      -3.13554912     -0.64318049      0.78355016
C      -3.54423322     -1.91096850      0.04847418
C      -3.23851141     -1.76884857     -1.43492800
C      -3.90009103     -0.52685533     -2.02643786
H       2.31684461      0.50556121      2.49269319
H       1.60059124     -0.56682292      1.30542251
H       4.45269548     -0.75212479      2.42648270
H       3.10518731     -1.80665135      2.86426362
H       2.99204758     -2.72251247      0.60611601
H       4.66180313     -2.83081913      1.16012761
H       5.30023091     -0.87004695     -0.14784639
H       4.44353300     -1.98931555     -1.21198844
H       3.63948216      0.33556358     -1.56113306
H       2.34214483     -0.66860510     -0.94662317
H      -3.44181053      1.46600502      0.72057643
H      -4.88299518      0.54875902      0.32506953
H      -3.40585904     -0.72397867      1.84231073
H      -2.04518418     -0.53460328      0.73670663
H      -3.00691004     -2.77210732      0.46064942
H      -4.61539418     -2.09688979      0.19240050
H      -3.57787584     -2.66102042     -1.97278493
H      -2.15207324     -1.70167469     -1.57439716
H      -4.99176934     -0.63445468     -2.02137125
H      -3.57768787     -0.44628330     -3.06803113
