21
O=C(O)c1cccc2ccccc12
O      -2.32647698     -2.19552679     -0.04626128
C      -2.39577360     -0.98353748      0.01774881
O      -3.56330833     -0.38270077      0.32336623
C      -1.30320096      0.00637460     -0.19286116
C      -1.65439964      1.26690669     -0.70913895
C      -0.67953149      2.22658312     -0.95370461
C       0.65478553      1.93592891     -0.68713987
C       1.03638404      0.68789545     -0.17055351
C       2.39310588      0.43267705      0.09071706
C       2.80866487     -0.79075921      0.61098013
C       1.87042499     -1.77602904      0.87964407
C       0.51714168     -1.53823040      0.62493562
C       0.05790815     -0.30806340      0.08892952
H      -4.18205996     -1.13176671      0.45276658
H      -2.69275236      1.50435040     -0.93080516
H      -0.95736354      3.19839168     -1.35364694
H       1.40372361      2.70058104     -0.88637236
H       3.14507730      1.19349744     -0.10983956
H       3.86220644     -0.97120904      0.80670990
H       2.18399823     -2.73364324      1.28752611
H      -0.17855386     -2.34172030      0.85699936
