37
CCCCCCC(=O)NNC(=O)c1ccncc1
C      -3.24912438      2.86413845      1.64001061
C      -4.38149748      1.91347392      1.28346113
C      -4.03760624      0.44005517      1.51211548
C      -2.92845856     -0.07390711      0.59085489
C      -2.69952254     -1.57671431      0.78684093
C      -1.60682292     -2.12297239     -0.13104666
C      -0.20637548     -1.72863398      0.29625919
O       0.07077754     -1.16854825      1.35427448
N       0.76144920     -2.09626710     -0.62193059
N       2.04939592     -1.55820846     -0.42431814
C       2.67527930     -1.03046665     -1.53917905
O       2.22985359     -1.17872964     -2.67521806
C       3.90881467     -0.23453064     -1.30255155
C       4.32445121      0.64701011     -2.30194138
C       5.47290511      1.38433196     -2.08450869
N       6.21650822      1.29399787     -0.96167178
C       5.80214149      0.42308607     -0.01763251
C       4.66700522     -0.35970619     -0.13746040
H      -2.91221575      2.70595890      2.66932781
H      -2.39274338      2.73734239      0.97140205
H      -3.58775308      3.90136043      1.55017453
H      -5.25363202      2.16541377      1.89861254
H      -4.67474513      2.07077092      0.23899899
H      -4.94557178     -0.15286146      1.34579894
H      -3.74870878      0.28833273      2.55929850
H      -1.99893638      0.46914620      0.79013724
H      -3.20010675      0.12099665     -0.45364812
H      -3.63369886     -2.10829204      0.56742838
H      -2.45362847     -1.78283096      1.83551715
H      -1.77695331     -1.79255243     -1.16212902
H      -1.64938651     -3.21877746     -0.11795340
H       0.51023638     -2.24472522     -1.60039220
H       2.19604482     -1.15393136      0.50079442
H       3.76725437      0.75859067     -3.22662640
H       5.83795092      2.08716432     -2.82834243
H       6.43274178      0.36611137      0.86575733
H       4.41467806     -1.05462626      0.65422023
