53
O=C(O)C(NCCCCCNC(C(=O)O)c1ccccc1)c1ccccc1
O      -5.69220756      1.00389312     -3.25162796
C      -4.92254769      1.49030905     -2.43735142
O      -4.83294138      2.83305056     -2.21499490
C      -3.94353428      0.69670160     -1.53627816
N      -2.88004143      1.65547843     -1.07107131
C      -1.89428555      0.98454427     -0.20463775
C      -0.73483864      1.94592324      0.07613523
C       0.28785244      1.39418166      1.07596700
C       0.93621257      0.05474722      0.70672591
C       1.71877413      0.10137313     -0.60939875
N       2.27280615     -1.19573349     -0.99249702
C       3.35526866     -1.70935494     -0.11416610
C       3.79576389     -3.09394647     -0.63529302
O       3.82365174     -3.46615037     -1.80135842
O       4.21777643     -3.92257712      0.34708451
C       4.55406736     -0.77734694     -0.01876490
C       4.90650602     -0.21534023      1.21900821
C       5.99893189      0.64763700      1.32363761
C       6.75285290      0.95972578      0.19424836
C       6.41586830      0.41124919     -1.04107807
C       5.32387655     -0.45192438     -1.14896934
C      -4.70078921      0.01946114     -0.40836972
C      -5.32621393      0.76076569      0.60852494
C      -6.02056240      0.11632886      1.63416051
C      -6.10282446     -1.27421536      1.65561583
C      -5.49245494     -2.02265967      0.65179262
C      -4.79618163     -1.38122817     -0.37453752
H      -4.15959130      2.95444529     -1.50213860
H      -3.45814441     -0.04362800     -2.18583622
H      -2.37278505      1.94998879     -1.91321869
H      -2.34973225      0.69326679      0.74783497
H      -1.51783968      0.08363493     -0.70140802
H      -1.13270125      2.88359200      0.48698839
H      -0.23203935      2.21296284     -0.86135216
H       1.07675599      2.14423277      1.21301465
H      -0.20104990      1.28196443      2.05176000
H       1.60769387     -0.21584137      1.52958748
H       0.17210240     -0.73012375      0.66379141
H       1.03663743      0.39397399     -1.41523440
H       2.49176576      0.87695097     -0.57163076
H       2.64298314     -1.14742136     -1.94325784
H       2.92667040     -1.89145308      0.87893921
H       4.48386027     -4.73330293     -0.13467794
H       4.33139102     -0.44677730      2.11327557
H       6.26300955      1.07637662      2.28720328
H       7.60424006      1.63068551      0.27685178
H       7.00506035      0.65384849     -1.92170790
H       5.08126951     -0.87168799     -2.12312544
H      -5.27431838      1.84746296      0.61219787
H      -6.50069751      0.70056254      2.41514366
H      -6.64731193     -1.77447218      2.45217655
H      -5.56359875     -3.10763378      0.66381153
H      -4.33441595     -1.98650000     -1.15235559
