28
CC(O)(CCC(C)(O)C(=O)O)C(=O)O
C       3.12280228     -0.52738534      0.85358909
C       2.00733496     -0.19102994     -0.13601313
O       2.20527900     -1.02471106     -1.28093332
C       0.62843781     -0.48870473      0.47991520
C      -0.53550483     -0.35299976     -0.52109994
C      -1.92066967     -0.51873153      0.13162964
C      -3.02292885     -0.51029518     -0.92818013
O      -1.96498351     -1.79414230      0.78048699
C      -2.21518689      0.60057641      1.14286822
O      -2.65634180      0.42751812      2.27022332
O      -1.98121492      1.84356834      0.68194377
C       2.11053678      1.30574666     -0.48435998
O       2.13518797      2.24907573      0.28788835
O       2.14490111      1.51181083     -1.82356593
H       3.03006994      0.04512396      1.78266097
H       3.12081932     -1.59519372      1.10000725
H       4.10519717     -0.30772654      0.41897120
H       2.05746851     -0.45160240     -2.05975043
H       0.46231561      0.17430935      1.33759433
H       0.62612825     -1.51739050      0.86292168
H      -0.47936847      0.61483360     -1.03256191
H      -0.41199300     -1.12743552     -1.28933985
H      -4.00865824     -0.63558810     -0.46466156
H      -2.89889470     -1.34303632     -1.62960922
H      -3.03470989      0.42589741     -1.49623421
H      -2.63831541     -1.72953175      1.48579414
H      -2.20309475      2.42957195      1.43688332
H       2.21538622      2.48747234     -1.90706784
