22
CC1CNC(C)CN1
C      -2.84943379      0.08641812     -0.02672635
C      -1.35500532      0.39877645     -0.00169912
C      -0.69294707     -0.00725514     -1.34435044
N       0.76554528      0.21331946     -1.35437494
C       1.36553401     -0.51001327     -0.21214188
C       2.86748430     -0.23191953     -0.18543858
C       0.71690447     -0.11024998      1.13983213
N      -0.74219372     -0.28807358      1.14923318
H      -3.03343562     -0.98698868     -0.14818319
H      -3.33488547      0.41039618      0.90059337
H      -3.33883991      0.60780242     -0.85639829
H      -1.23519330      1.48211998      0.13380496
H      -1.13315780      0.57750357     -2.16045543
H      -0.89812462     -1.06167467     -1.57016163
H       0.93579466      1.21045890     -1.22694901
H       1.22565307     -1.58764074     -0.37022230
H       3.34808002     -0.78800456      0.62666285
H       3.34015031     -0.54087390     -1.12439576
H       3.07791928      0.83286451     -0.03463502
H       0.95310235      0.93561181      1.37565037
H       1.14433643     -0.72258214      1.94203303
H      -1.12728755      0.08000480      2.01758860
