33
CCCCC(=O)[O-].CCCCC(=O)[O-].[Zn+2]
C      -2.18665157     -0.56872546     -0.20109198
C      -0.68567041     -0.42434372     -0.39855463
C      -0.09930296      0.63715135      0.53469084
C       1.40226034      0.81984724      0.33339247
C       2.29968826     -0.33309175      0.79535804
O       1.81540165     -1.10592076      1.66709305
O       3.43855650     -0.35730599      0.24576397
C      -2.39082435     -0.09739700      0.10964943
C      -1.01097583     -0.67423170     -0.16405905
C       0.08926338      0.35057399      0.11123146
C       1.47267854     -0.23012012     -0.16397563
C       2.64412767      0.72574799      0.08416683
O       2.35349868      1.88520779      0.48684578
O       3.78002379      0.22051641     -0.15125988
Zn      0.00000000      0.00000000      0.00000000
H      -2.70227792      0.37467710     -0.40710666
H      -2.41977826     -0.87149113      0.82473356
H      -2.58660892     -1.32926878     -0.87898870
H      -0.20904785     -1.39455321     -0.22071398
H      -0.48609026     -0.15255913     -1.44167030
H      -0.59547612      1.59624584      0.34088145
H      -0.31487954      0.37631507      1.57767023
H       1.60649993      1.02887214     -0.72410915
H       1.72337714      1.70415117      0.89832407
H      -2.48596698      0.21304010      1.15507351
H      -3.16209123     -0.84687970     -0.09366152
H      -2.58585255      0.77195210     -0.52637775
H      -0.96005346     -1.00415973     -1.20821677
H      -0.86071643     -1.56002272      0.46403920
H       0.02882334      0.68249636      1.15512408
H      -0.07035771      1.23746895     -0.51444876
H       1.62894120     -1.11535668      0.46505036
H       1.52948195     -0.55883606     -1.20918129
