34
CCOP(=S)(OCC)O/N=C(\C#N)c1ccccc1Cl
C      -3.85798703      2.97081080      1.29818362
C      -2.94245666      2.49227429      0.19012980
O      -2.91153989      1.07453173      0.21180914
P      -1.80710443      0.31735512     -0.70291020
S      -1.96389697      0.56270409     -2.62227757
O      -1.93592615     -1.20039243     -0.14575886
C      -3.14112821     -1.90418430     -0.39017384
C      -3.14831168     -3.15738817      0.46113816
O      -0.41292715      0.80804370     -0.00149197
N       0.75495332      0.13001076     -0.41861365
C       1.83083443      0.57454116      0.16199690
C       1.71144303      1.62559234      1.15377733
N       1.61480887      2.45407086      1.96400677
C       3.15292821     -0.01899497     -0.10216443
C       3.22667161     -1.42216245     -0.11848323
C       4.44648869     -2.06188484     -0.34201385
C       5.59676110     -1.30778714     -0.56035914
C       5.52646979      0.08639273     -0.56821908
C       4.30681267      0.73607642     -0.34628905
Cl      4.30024168      2.45777309     -0.46726377
H      -3.91463814      4.06278988      1.31358746
H      -3.49915468      2.62167769      2.27207915
H      -4.86702191      2.56620438      1.16682385
H      -3.32043948      2.83243902     -0.77845542
H      -1.93519467      2.89306153      0.33951148
H      -4.00234452     -1.27759093     -0.13849383
H      -3.19519472     -2.17383747     -1.44904580
H      -2.28458411     -3.78830421      0.22649493
H      -3.07675647     -2.90181302      1.52353437
H      -4.06231980     -3.73512578      0.29778848
H       2.33505557     -2.02551031      0.04825193
H       4.49821676     -3.14876869     -0.34864336
H       6.54811011     -1.80496405     -0.73810419
H       6.42913083      0.66235917     -0.76278366
