52
CCC(=O)Nc1cccc(Nc2cc(S(=O)(=O)[O-])c(N)c3c2C(=O)c2ccccc2C3=O)c1.[Na+]
C       7.38430092      2.17080860      1.22368688
C       5.90773858      1.98049847      0.92510632
C       5.51676762      0.51398852      0.81656165
O       6.32298833     -0.39279346      0.99558724
N       4.17366887      0.37649563      0.51717356
C       3.45583475     -0.81378826      0.28063653
C       4.01967856     -2.08618559      0.26148901
C       3.22645104     -3.19582770     -0.03973468
C       1.86829339     -3.03580830     -0.32720303
C       1.27008088     -1.77059291     -0.29312876
N      -0.09172383     -1.65644295     -0.65484044
C      -0.89968506     -0.50983763     -0.85261462
C      -0.36338258      0.63413625     -1.44100434
C      -1.08372088      1.83284627     -1.50646217
S      -0.11807003      3.27827978     -2.04252013
O       1.12072890      3.11180335     -1.28007429
O      -0.00886843      3.05722892     -3.47951991
O      -0.93681194      4.41796880     -1.63073729
C      -2.40012056      1.92353816     -1.03244856
N      -3.19384171      3.06002986     -1.29510511
C      -2.98441915      0.74159462     -0.51187710
C      -2.24795439     -0.45992890     -0.42951618
C      -2.90515936     -1.69012605      0.08930534
O      -2.28556814     -2.74443222      0.21253818
C      -4.33572099     -1.67012287      0.43306137
C      -4.98117736     -2.85869000      0.80540069
C      -6.33697784     -2.84799790      1.13678559
C      -7.05102910     -1.65225246      1.10093642
C      -6.40800318     -0.46897114      0.73456528
C      -5.04658018     -0.47970407      0.39690503
C      -4.37280854      0.77700271      0.03225342
O      -4.97381244      1.82996082      0.22864562
C       2.08484464     -0.67454382      0.02150269
Na      0.00000000      0.00000000      0.00000000
H       8.00423514      1.73266073      0.43440900
H       7.65920371      1.69365048      2.17027300
H       7.62443992      3.23608299      1.29557687
H       5.31337446      2.43896190      1.72380306
H       5.66103959      2.47874976     -0.01942371
H       3.63903877      1.23502594      0.40225139
H       5.07508346     -2.24407756      0.45630704
H       3.67401113     -4.18539455     -0.06986797
H       1.27684119     -3.90919415     -0.59007554
H      -0.64174085     -2.46803816     -0.35158924
H       0.64404920      0.62627844     -1.85481175
H      -3.96300176      3.17868059     -0.63344524
H      -2.60732827      3.91023065     -1.38240474
H      -4.42889495     -3.79628018      0.83801484
H      -6.83319967     -3.77189631      1.42382969
H      -8.10685308     -1.63752369      1.36011720
H      -6.96962245      0.46367768      0.71301571
H       1.65338365      0.32027091      0.08421463
