31
CCCCCOC(=O)c1ccc(O)c(Br)c1
C       5.76158552      0.15533301      0.64168199
C       4.32744832      0.65779364      0.68956811
C       3.35391030     -0.37163987      0.11651172
C       1.91495055      0.13688472      0.16644562
C       0.93653712     -0.88413661     -0.40351168
O      -0.38288179     -0.32816268     -0.31808671
C      -1.36003562     -1.13822136     -0.79464600
O      -1.19871391     -2.25190428     -1.26710495
C      -2.69079843     -0.48370561     -0.66707246
C      -3.81866040     -1.18831240     -1.11539547
C      -5.09076299     -0.62036698     -1.01895275
C      -5.23725909      0.65077179     -0.47508425
O      -6.50467173      1.15601294     -0.40577882
C      -4.12190857      1.36043600     -0.02604360
Br     -4.31275116      3.09315136      0.71638532
C      -2.84743254      0.79824386     -0.11965452
H       6.44058923      0.90699575      1.05625315
H       6.07087613     -0.05085496     -0.38796045
H       5.87498338     -0.76374807      1.22543530
H       4.06059571      0.88500269      1.72826530
H       4.25540844      1.59395357      0.12375877
H       3.43281604     -1.30735473      0.68329001
H       3.62764832     -0.59849599     -0.92109568
H       1.63103360      0.37360751      1.19955529
H       1.82434706      1.07691739     -0.39220644
H       0.97994785     -1.81322192      0.17686275
H       1.17779015     -1.09338072     -1.45228857
H      -3.71071306     -2.18434685     -1.54238748
H      -5.96260060     -1.16835239     -1.36697663
H      -6.44662296      2.04330735     -0.00667372
H      -1.98465488      1.35779384      0.23238401
