35
CCOP(=S)(OCC)Oc1ccc(S(C)=O)cc1
C      -2.48526963      2.86841469      0.89839544
C      -2.64342873      1.40933038      0.52350944
O      -2.00714407      0.61870044      1.51325279
P      -1.61824274     -0.91564509      1.16706261
S      -1.03095794     -1.97685449      2.67998810
O      -2.97287878     -1.42825281      0.43766583
C      -2.97585074     -2.72164748     -0.14385879
C      -4.16968856     -2.82958429     -1.07014415
O      -0.60914820     -0.76943829     -0.08637060
C       0.62072600     -0.17533689     -0.06989504
C       1.13368989      0.55364964      1.00003215
C       2.40659305      1.12763117      0.90798169
C       3.17111328      0.97513241     -0.25337147
S       4.81222791      1.72564241     -0.34947569
C       5.68356346      0.48053649      0.63679912
O       5.25889019      1.55820376     -1.77267714
C       2.64443839      0.25639618     -1.32926590
C       1.37443923     -0.31708539     -1.23567752
H      -2.97332112      3.51533605      0.16414728
H      -1.42545742      3.13772375      0.95763298
H      -2.91895848      3.06303023      1.88484696
H      -3.70452815      1.14463045      0.48576392
H      -2.19955519      1.22778048     -0.45984871
H      -3.04894034     -3.47309026      0.64785085
H      -2.05133843     -2.88595024     -0.70610421
H      -5.10115298     -2.65619975     -0.52112728
H      -4.21363329     -3.81747633     -1.53703636
H      -4.11711249     -2.06895716     -1.85617716
H       0.57319326      0.70291005      1.91812340
H       2.78954077      1.69723558      1.75185130
H       6.75018846      0.71770425      0.62731014
H       5.53129350     -0.51272550      0.20711913
H       5.32048799      0.50536897      1.66693107
H       3.21893247      0.13863651     -2.24618077
H       0.97728943     -0.87574993     -2.07975301
