62
CC(C)(O)C(=O)c1ccc(C2(C)CC(C)(C)c3ccc(C(=O)C(C)(C)O)cc32)cc1
C       5.05839537      2.53591389      1.69873452
C       5.35853677      1.03843971      1.69225285
C       4.79162514      0.30777822      2.90598919
O       6.79543536      0.92904161      1.82067958
C       4.99822529      0.37914925      0.33967532
O       5.90083937      0.15232217     -0.47904638
C       3.60065536     -0.00927400     -0.02409944
C       2.45824400      0.53495228      0.55974542
C       1.18122681      0.11384548      0.15900711
C       1.00599736     -0.86201684     -0.83461491
C      -0.37916716     -1.34703583     -1.29716439
C      -0.58391013     -0.98934415     -2.78278187
C      -0.54985791     -2.88814669     -1.08911632
C      -1.20644006     -3.11603861      0.29997697
C      -2.09241125     -4.36910758      0.26890470
C      -0.17277127     -3.25045080      1.42439130
C      -1.99887353     -1.83891780      0.43815059
C      -3.04196412     -1.57561429      1.31236833
C      -3.66166679     -0.32333345      1.26328396
C      -3.24460226      0.66926294      0.35154670
C      -3.96553378      1.98727634      0.38509255
O      -4.78212794      2.17379046      1.29197713
C      -3.70119293      3.07694734     -0.68904837
C      -4.25182558      2.62370142     -2.04531538
C      -4.40221514      4.38536007     -0.28808976
O      -2.31629116      3.38205029     -0.83579429
C      -2.18004674      0.39129563     -0.51492179
C      -1.55848423     -0.85853482     -0.46241940
C       2.16717053     -1.38705868     -1.42763890
C       3.44139457     -0.96767441     -1.03060663
H       5.57702356      3.03069977      2.52987929
H       5.42041232      3.00918458      0.77764166
H       3.99299681      2.75765622      1.78795652
H       5.01751140     -0.76444245      2.84822955
H       3.71018519      0.41369172      3.00665828
H       5.25125870      0.67531253      3.83119069
H       7.13982594      0.82630795      0.90782890
H       2.50772329      1.29676813      1.32717602
H       0.32661850      0.56567823      0.65550041
H       0.12662943     -1.51531710     -3.42978795
H      -1.59168687     -1.25303436     -3.12575865
H      -0.45043154      0.08497422     -2.95836475
H       0.38074608     -3.45703351     -1.19461680
H      -1.22591314     -3.27510827     -1.86701721
H      -2.58402356     -4.53867970      1.23420371
H      -1.49870551     -5.26105362      0.03854514
H      -2.88270958     -4.28789727     -0.48665673
H       0.47964755     -4.11413140      1.25545106
H      -0.66388738     -3.38956647      2.39441699
H       0.46435365     -2.36678371      1.51831255
H      -3.38152381     -2.32146777      2.02535644
H      -4.48432813     -0.12290824      1.94867839
H      -4.11456953      3.40621176     -2.80253201
H      -5.31891471      2.37974485     -1.98426902
H      -3.73201785      1.73880261     -2.42713014
H      -4.04996304      4.73263361      0.68980942
H      -5.48904010      4.26465005     -0.23252827
H      -4.17701057      5.18612081     -1.00084059
H      -2.02231064      3.81066527     -0.01056287
H      -1.80847751      1.12658104     -1.22006081
H       2.09887281     -2.13518341     -2.21498719
H       4.31334432     -1.40165520     -1.51754053
