18
[O-]c1cccc2[nH+]cccc12
O      -1.85961473      2.30997274      0.52577152
C      -1.45505503      1.21056868      0.02300266
C      -2.27166515      0.48905959     -0.87566482
C      -1.89824129     -0.71977153     -1.46599594
C      -0.66132473     -1.26564753     -1.17112251
C       0.18793435     -0.59298453     -0.28708878
N       1.39294262     -1.11890125      0.00400226
C       2.27105712     -0.54706358      0.83760418
C       1.97046017      0.64732696      1.45681207
C       0.74000445      1.23002318      1.18929074
C      -0.18894136      0.63039534      0.31089616
H      -3.25212417      0.90602419     -1.11964035
H      -2.58511837     -1.21284703     -2.14783446
H      -0.38063000     -2.20448057     -1.63449288
H       1.63960779     -1.99782542     -0.43828105
H       3.20829578     -1.06895593      0.99058255
H       2.66660569      1.12892446      2.13605581
H       0.47580685      2.17618223      1.66610285
