31
COP(=S)(OC)Oc1ccc(SC)c(C)c1
C      -3.93668170      2.24254643     -0.24644499
O      -3.87012077      0.83225331     -0.32426176
P      -2.67074996      0.07497199      0.46317055
S      -2.67005876      0.28736333      2.39351873
O      -2.84478318     -1.43237522     -0.10555721
C      -4.02445482     -2.14050826      0.21810285
O      -1.37971380      0.60427588     -0.35071803
C      -0.10260446      0.13445787     -0.23614064
C       0.25719483     -1.01631611      0.45294750
C       1.59946792     -1.40274136      0.50368632
C       2.59372505     -0.64475600     -0.13071846
S       4.28817660     -1.21042293     -0.01918635
C       4.64053406     -0.69666154      1.68207470
C       2.23267834      0.51086200     -0.84544459
C       3.24595396      1.35783834     -1.56594583
C       0.87841089      0.88674931     -0.88656059
H      -4.29351909      2.54759786      0.74037848
H      -4.64469060      2.59907823     -0.99899272
H      -2.95994073      2.69142647     -0.44518507
H      -4.91167264     -1.53274671      0.02240369
H      -4.07230352     -3.03847168     -0.40327697
H      -4.00416236     -2.44385234      1.26778387
H      -0.47312957     -1.64338729      0.95355190
H       1.86201079     -2.31151433      1.04173550
H       4.49287714      0.38099641      1.79483034
H       5.68157400     -0.93166638      1.91908753
H       3.99622518     -1.22706692      2.38840871
H       3.75460920      0.77265476     -2.33871820
H       3.98135335      1.75820607     -0.86073242
H       2.77378231      2.21212413     -2.06318897
H       0.58001237      1.77908471     -1.43350659
