16
NC1=NC(N)C(=O)C(=O)N1
N       2.12213144     -1.39707056      0.10563234
C       1.08052970     -0.53550568      0.12989039
N      -0.09133246     -0.95056789      0.44922332
C      -1.15940582      0.03159157      0.59246721
N      -2.42977694     -0.66829434      0.44597879
C      -1.01431789      1.15907671     -0.41504446
O      -1.87517501      1.61173919     -1.15602327
C       0.39860287      1.69915835     -0.45166340
O       0.65282261      2.86272575     -0.71774304
N       1.35738711      0.75277267     -0.20133808
H       1.82187662     -2.36643050      0.16917888
H       2.82079399     -1.25881121     -0.61380377
H      -1.12582580      0.46808222      1.59723033
H      -2.32121006     -1.56054895      0.92403744
H      -2.55061761     -0.89895088     -0.53925579
H       2.31351724      1.05103355     -0.31876688
