26
COc1cc([N+](=O)[O-])c2c(c1OC)C(=O)OC2
C       2.88323561     -2.03726622     -0.25185781
O       2.40970228     -0.72221392      0.00981380
C       1.05434996     -0.52393895      0.04320925
C       0.09798665     -1.48896093     -0.31406642
C      -1.27759434     -1.19383706     -0.23418555
N      -2.25267456     -2.22749092     -0.60572965
O      -3.45229279     -1.92610990     -0.57739425
O      -1.81549535     -3.34002423     -0.92776515
C      -1.68448296      0.06412476      0.19660444
C      -0.73271658      1.00826590      0.53563817
C       0.62896730      0.74943357      0.45956349
O       1.53786575      1.68045179      0.87899196
C       1.99519705      2.47045979     -0.21845664
C      -1.41126406      2.23500312      0.94569085
O      -0.91181802      3.28992556      1.27602900
O      -2.75071101      1.98161140      0.85814496
C      -3.02862380      0.64743579      0.39113071
H       2.63772546     -2.34521015     -1.27328823
H       3.97359835     -2.02422083     -0.16108906
H       2.49576950     -2.75194548      0.48174197
H       0.41140322     -2.47325120     -0.65242428
H       1.16383761      2.97467204     -0.72319881
H       2.55896647      1.86348200     -0.93476621
H       2.66670452      3.23782287      0.17790675
H      -3.59322386      0.72405616     -0.54207910
H      -3.60441239      0.12772504      1.16183580
