34
CC1(C)CC(N=C=O)CC(C)(CN=C=O)C1
C      -1.93444789     -1.36230523     -0.72317890
C      -1.16619986     -0.88099787      0.52096040
C      -1.60763952     -1.81497991      1.67707731
C      -1.55015084      0.56527379      0.90585361
C      -0.88961300      1.67999239      0.08467840
N      -1.48121646      1.76367965     -1.26027061
C      -2.26907894      2.62191707     -1.40041622
O      -3.05645308      3.48430896     -1.53054998
C       0.62939136      1.49187527     -0.02436895
C       1.11487753      0.08023937     -0.43920246
C       0.95945363     -0.12920062     -1.96168944
C       2.65332809     -0.04004486     -0.17407867
N       2.96498527      0.16154908      1.25116251
C       4.10392378      0.04073139      1.50604767
O       5.24673029     -0.08172663      1.75013418
C       0.36883126     -1.02112961      0.36123528
H      -1.80352777     -0.72300949     -1.59346693
H      -3.01278802     -1.39548571     -0.52591667
H      -1.62425678     -2.37401305     -1.00870131
H      -1.36044331     -2.85988429      1.45686562
H      -1.11351335     -1.54922236      2.61863760
H      -2.68898873     -1.75399800      1.84578797
H      -2.64186369      0.68009018      0.87987528
H      -1.25790574      0.73077529      1.95277523
H      -1.05145657      2.62679504      0.62436420
H       1.04668220      2.24324493     -0.70790434
H       1.03762922      1.73125951      0.96625728
H      -0.05655872      0.00965629     -2.32304791
H       1.58348177      0.58023098     -2.51854191
H       1.27363095     -1.13827475     -2.25266673
H       3.18666982      0.70989488     -0.77620419
H       2.99993210     -1.03260047     -0.49736072
H       0.60764391     -2.00724967     -0.06020601
H       0.78891108     -1.03739158      1.37605942
