37
Cc1c2c(cc3c1ccc1ccccc13)CCCC2
C      -1.26115769     -2.92170480      0.32550680
C      -0.84068217     -1.47484881      0.15682165
C      -1.82197953     -0.46641089     -0.01811121
C      -1.40653110      0.85333419     -0.24179539
C      -0.03761320      1.16440560     -0.21817123
C       0.97421298      0.20544417      0.00686391
C       0.55288803     -1.13657874      0.20240288
C       1.54966415     -2.10243631      0.44513070
C       2.90526832     -1.78211959      0.48423297
C       3.33285068     -0.47333594      0.28389703
C       4.70823963     -0.18396812      0.32726687
C       5.17615292      1.11189793      0.13415232
C       4.27090694      2.13289039     -0.10432369
C       2.90082566      1.85342325     -0.14869097
C       2.38016419      0.54536323      0.04263222
C      -2.38544281      1.98487910     -0.45522699
C      -3.78172625      1.51186769     -0.84066202
C      -4.22676057      0.40852336      0.10323801
C      -3.30121796     -0.80090208     -0.01823070
H      -0.66158208     -3.57506949     -0.31723649
H      -2.29580314     -3.10846758      0.02878827
H      -1.14681078     -3.22455262      1.37108491
H       0.22760834      2.20661026     -0.37504181
H       1.28976088     -3.14321515      0.62095985
H       3.62238004     -2.57735269      0.67628712
H       5.43144783     -0.97534578      0.51396750
H       6.24170527      1.31995773      0.17038397
H       4.62216077      3.14994384     -0.25704231
H       2.24024991      2.69380190     -0.33991755
H      -2.44133997      2.56504139      0.47460914
H      -2.01534482      2.65470140     -1.24089288
H      -4.48200406      2.35349702     -0.79950186
H      -3.78292687      1.14012049     -1.87306437
H      -4.21946414      0.78137908      1.13547047
H      -5.25639321      0.10806994     -0.12109373
H      -3.53249108     -1.47049373      0.81834858
H      -3.52921513     -1.32834962     -0.95304199
