13
O=P([O-])([O-])[O-].O=P([O-])([O-])[O-].[Ca+2].[Ca+2].[Ca+2]
O      -0.07914069      1.50551186     -0.30189172
P       0.00000001      0.00000001     -0.00000003
O       1.28116676     -0.58056260     -0.62090786
O      -1.22626183     -0.70800728     -0.59914526
O       0.02423574     -0.21694199      1.52194486
O       0.05125326      1.50673957     -0.30178919
P      -0.00000006     -0.00000006     -0.00000001
O       1.43164895     -0.54729255      0.12173567
O      -0.73116765     -0.72659847     -1.14079639
O      -0.75173451     -0.23284849      1.32084991
Ca      0.00000000      0.00000000      0.00000000
Ca      0.00000000      0.00000000      0.00000000
Ca      0.00000000      0.00000000      0.00000000
