76
CCCCC(CC)C(=O)OOC(C)(C)CCC(C)(C)OOC(=O)C(CC)CCCC
C      -8.08419695      0.37609295     -1.09321284
C      -6.84897729      0.11485042     -1.93953552
C      -5.95693542     -1.00276597     -1.39223782
C      -5.41337588     -0.79844661      0.03000377
C      -4.57922314      0.47943331      0.22686579
C      -4.17110862      0.73442644      1.68969431
C      -3.54744939     -0.44725137      2.41971249
C      -3.36279218      0.55700316     -0.68444323
O      -3.03985486      1.58431545     -1.27271727
O      -2.68973440     -0.63346503     -0.71637469
O      -1.60827961     -0.50610208     -1.69466822
C      -0.38436765     -0.93646011     -1.07130295
C      -0.54858533     -2.34167228     -0.46644189
C       0.64256612     -1.02812271     -2.20892286
C       0.06856999      0.06518275      0.01946527
C       0.36048156      1.48357457     -0.49904690
C       0.69953592      2.52166237      0.59923321
C       1.03809583      3.87737100     -0.04264178
C      -0.48387789      2.72874632      1.55590163
O       1.79538872      2.08967445      1.42354589
O       2.96468157      1.91925494      0.55953534
C       3.61890915      0.78793370      0.97987743
O       3.28568885      0.06624965      1.91114727
C       4.83327125      0.55382722      0.09045833
C       5.94111073      1.56661768      0.43012688
C       6.55255604      1.40760906      1.81742085
C       5.32720189     -0.90372623      0.16603684
C       4.34287448     -1.88949138     -0.47967181
C       4.87645804     -3.32227828     -0.54691743
C       5.07907085     -3.96003991      0.81903383
H      -8.73396252      1.10313324     -1.59101020
H      -7.81908774      0.78646483     -0.11500986
H      -8.65675747     -0.54304994     -0.93962728
H      -6.27647384      1.04197335     -2.05153170
H      -7.17143129     -0.16943414     -2.94918253
H      -5.11821496     -1.14795708     -2.08377660
H      -6.52484404     -1.94145328     -1.40667129
H      -6.25156261     -0.79462759      0.73740138
H      -4.81402945     -1.68300500      0.27870207
H      -5.20753793      1.33191044     -0.06265338
H      -5.06129669      1.04635436      2.25157572
H      -3.46983914      1.57719050      1.72953321
H      -4.26748417     -1.25920639      2.55527424
H      -2.67830372     -0.83940109      1.88833956
H      -3.21381752     -0.13508930      3.41390666
H      -1.23903074     -2.33685735      0.38313368
H       0.40931855     -2.73833852     -0.11355569
H      -0.96399626     -3.03739313     -1.20371276
H       0.35977583     -1.81006088     -2.92386073
H       1.64382782     -1.25634316     -1.83305870
H       0.68463579     -0.10013910     -2.78878193
H      -0.71405330      0.12166598      0.78195397
H       0.96191348     -0.32892022      0.51711214
H       1.20761558      1.42598540     -1.19281433
H      -0.49006003      1.84880675     -1.08395314
H       0.17461013      4.29714154     -0.57040554
H       1.36690123      4.59674116      0.71607461
H       1.85923737      3.78598263     -0.76288757
H      -0.67412269      1.83714029      2.16210139
H      -1.39898617      2.99139951      1.01612402
H      -0.26781683      3.53091773      2.27146067
H       4.51225872      0.73932587     -0.94425762
H       5.54627911      2.58722743      0.34479168
H       6.74137652      1.48200189     -0.31492251
H       5.79247513      1.48208545      2.60074268
H       7.28934278      2.19998969      1.99091746
H       7.06957005      0.44919275      1.92349288
H       5.49682234     -1.18843828      1.21154407
H       6.29154378     -0.98325545     -0.35147362
H       4.12628747     -1.56033913     -1.50389404
H       3.38971152     -1.88554468      0.06346838
H       5.82131216     -3.34226055     -1.10303787
H       4.16312288     -3.93216733     -1.11414915
H       5.86385518     -3.45173925      1.38794590
H       5.37911249     -5.00729833      0.70465640
H       4.15410082     -3.93431509      1.40458132
