11
O=[N+]([O-])c1ccn[nH]1
O      -2.47191763      0.72997120     -0.50460007
N      -1.82301680     -0.19060118      0.00724915
O      -2.27941721     -1.21767124      0.51877513
C      -0.41709679     -0.04840295      0.00415363
C       0.58779344     -0.85363118      0.47392674
C       1.75866983     -0.13348628      0.15817783
N       1.50270888      1.02708604     -0.45876113
N       0.15697948      1.05411690     -0.54070486
H       0.49658459     -1.81099707      0.96759654
H       2.78928224     -0.40623537      0.35211517
H      -0.30057004      1.84985112     -0.97792813
