31
NS(=O)(=O)c1nnc(NS(=O)(=O)c2ccc([N+](=O)[O-])cc2[N+](=O)[O-])s1
N       4.97979617      0.09467721      1.13797166
S       4.54884370      0.49363120     -0.44198036
O       5.51081436     -0.17663812     -1.28704945
O       4.37673209      1.92884095     -0.44819558
C       2.97765766     -0.19699233     -0.81881684
N       2.19386271     -0.85431817      0.01435744
N       1.03114789     -1.26268461     -0.61196683
C       0.98650393     -0.85355353     -1.85886483
N      -0.15983879     -1.16163630     -2.68633698
S      -1.33411318      0.04655441     -2.62462148
O      -2.54681251     -0.46269971     -3.22255628
O      -0.74244856      1.28114123     -3.09356958
C      -1.69041276      0.25788198     -0.89155947
C      -1.28001829      1.44285751     -0.26027182
C      -1.59504425      1.66930776      1.08421660
C      -2.33582973      0.71589200      1.79833358
N      -2.66060097      0.95638788      3.21155362
O      -2.30185236      2.03210777      3.70819540
O      -3.27139740      0.06554309      3.81634930
C      -2.76583155     -0.46424181      1.17790442
C      -2.43704302     -0.68158155     -0.16992526
N      -2.85772187     -1.94264969     -0.75960878
O      -1.98005541     -2.62313652     -1.30992590
O      -4.04283289     -2.26182370     -0.62058078
S       2.36029113      0.00020227     -2.39897718
H       5.14122431      0.94971708      1.67264817
H       5.79874889     -0.51572138      1.12341214
H      -0.58429906     -2.06501152     -2.44226693
H      -0.71832821      2.20338875     -0.80361719
H      -1.26106485      2.59343853      1.55625812
H      -3.34007720     -1.20888069      1.72948813
