40
Cc1ccc(Nc2ccc(O)c3c2C(=O)c2ccccc2C3=O)cc1
C       6.68207104      0.26885458      0.43056444
C       5.22585949      0.10374400      0.11405614
C       4.71219114      0.53158301     -1.11257360
C       3.34735135      0.40477417     -1.39016650
C       2.46078873     -0.13658682     -0.44893869
N       1.10454822     -0.26818843     -0.80998100
C       0.04662290     -1.00840638     -0.23432580
C       0.28902379     -2.27758375      0.31595879
C      -0.73217824     -3.01834074      0.90860215
C      -2.01924946     -2.50167936      0.95513472
O      -2.96091935     -3.28940855      1.56078435
C      -2.30394665     -1.24750903      0.39777432
C      -1.27950305     -0.50604337     -0.20719391
C      -1.60612776      0.80753710     -0.82385685
O      -0.75242050      1.45070973     -1.42819839
C      -2.97573964      1.34657357     -0.72666476
C      -3.26828589      2.60686974     -1.26562877
C      -4.56325167      3.12144510     -1.18136220
C      -5.56864447      2.38091623     -0.56161450
C      -5.28001785      1.12516727     -0.02555815
C      -3.97992298      0.60941020     -0.10925961
C      -3.68079881     -0.71559656      0.45518809
O      -4.56917030     -1.38209295      0.97982593
C       2.98258941     -0.55324581      0.77884565
C       4.34768531     -0.42716717      1.06304177
H       6.85648747      1.24586294      0.89160772
H       7.29030388      0.19179490     -0.47682163
H       7.02357899     -0.51286951      1.11723354
H       5.36841188      0.96263207     -1.86493861
H       2.97602297      0.72868302     -2.35982324
H       0.76903679      0.56367903     -1.31297236
H       1.28376822     -2.71562515      0.26241853
H      -0.52230530     -3.99918279      1.32813196
H      -3.82642155     -2.82180113      1.52335333
H      -2.49033488      3.19257695     -1.75284432
H      -4.78697094      4.10021211     -1.60044850
H      -6.57826490      2.78093512     -0.49623783
H      -6.07133360      0.55288446      0.45573757
H       2.33269301     -0.95038197      1.55236830
H       4.71677317     -0.74513584      2.03548706
