14
O=[N+]([O-])c1c(Cl)cc(Cl)cc1Cl
O       2.86679727      0.37174831      1.07495857
N       2.29350283      0.36197454     -0.02119399
O       2.82208288      0.52610542     -1.12752888
C       0.87452160      0.13802224     -0.00808143
C       0.01115641      1.23139728      0.08607278
Cl      0.56186083      2.86399830      0.18930934
C      -1.36790798      1.00894199      0.09847995
C      -1.86090653     -0.29369953      0.01719635
Cl     -3.55943362     -0.56177134      0.03289197
C      -0.99226221     -1.38143838     -0.07666983
C       0.38827518     -1.16835665     -0.08976387
Cl      1.41302790     -2.55230948     -0.20755881
H      -2.05842301      1.84712071      0.17124017
H      -1.39229155     -2.39173342     -0.13935232
