26
O=S(=O)(CCCl)CCS(=O)(=O)CCCl
O       2.05767931     -1.83537426      1.03629091
S       1.91966160     -0.42900998      1.35787133
O       1.49702306     -0.01609094      2.68202520
C       3.46105599      0.38908670      1.00332624
C       4.07921956     -0.12124083     -0.27763734
Cl      5.56469432      0.78924712     -0.64163909
C       0.76554302      0.27365294      0.20596101
C      -0.62035261     -0.28476043      0.45987754
S      -1.76789970      0.39018376     -0.71178339
O      -1.86426509      1.81316406     -0.45524091
O      -1.39018346     -0.10302887     -2.02115368
C      -3.31344187     -0.36268629     -0.25840612
C      -4.40754962      0.12235338     -1.18226802
Cl     -5.95739826     -0.62989009     -0.73292110
H       4.12068893      0.19394373      1.85597861
H       3.25799612      1.46433901      0.96951061
H       3.40801356     -0.00172444     -1.13196405
H       4.35004499     -1.17845730     -0.20186246
H       1.10864675      0.03362996     -0.80399751
H       0.78615365      1.35986188      0.33727299
H      -0.97889482     -0.02509809      1.46067693
H      -0.63873368     -1.37354864      0.35050190
H      -3.18250759     -1.44712604     -0.32864030
H      -3.51824935     -0.08954743      0.78155935
H      -4.20152774     -0.13924849     -2.22454805
H      -4.53541707      1.20736957     -1.12210956
