15
Cc1cc(=O)[nH]c(=O)[nH]1
C       2.20651528     -0.01995180      0.07187878
C       0.71239377      0.06251287      0.02013576
C       0.04288000      1.21994269     -0.05295009
C      -1.43289332      1.19926863     -0.09950963
O      -2.07502329      2.24085667     -0.16655621
N      -2.01671731     -0.03388603     -0.06337501
C      -1.34288758     -1.21806309      0.01104149
O      -1.91795540     -2.30082763      0.04076106
N       0.02154744     -1.12305481      0.05070793
H       2.67108427      0.97137301      0.04267632
H       2.58734282     -0.59277436     -0.78018812
H       2.53025773     -0.51375527      0.99411641
H       0.52021082      2.19068566     -0.08082440
H      -3.02267669     -0.07583670     -0.09387133
H       0.51592147     -2.00648984      0.10595705
