22
Clc1cc(Cl)c(-c2cccc(Cl)c2Cl)cc1Cl
Cl     -5.24603244     -0.10622496     -0.35914439
C      -3.52473717     -0.03828425     -0.23046524
C      -2.79312999     -1.11497740     -0.73522261
C      -1.39714963     -1.11156464     -0.66020184
Cl     -0.55693619     -2.47499181     -1.31456407
C      -0.70761196     -0.03175634     -0.07680640
C       0.76198618      0.00971878      0.02901868
C       1.49777181      0.61547739     -1.00754255
C       2.89010171      0.67902159     -0.96006150
C       3.57231655      0.13892765      0.12677394
C       2.86545720     -0.46544775      1.17020354
Cl      3.79106808     -1.10622745      2.48410228
C       1.46327678     -0.53290060      1.12935336
Cl      0.57915245     -1.27463748      2.43076461
C      -1.46158271      1.04591717      0.42365252
C      -2.85895785      1.04523506      0.34975244
Cl     -3.69671132      2.41324630      0.99003490
H      -3.31000568     -1.95858886     -1.18725235
H       0.98206216      1.03853451     -1.86912724
H       3.44244353      1.14680593     -1.77221506
H       4.65852858      0.19071356      0.15618207
H      -0.95131009      1.89200361      0.88276491
