18
CC(N)(CO)CO
C      -0.26178596     -1.49276504     -0.97126065
C      -0.04418171     -0.29030545     -0.04933928
N      -0.08782717     -0.72763640      1.37171303
C      -1.15415537      0.76963206     -0.27974248
O      -1.07242442      1.81468237      0.69328293
C       1.34807892      0.32939649     -0.32035307
O       1.62703499      1.35548619      0.63730576
H      -1.24009060     -1.95659400     -0.80040563
H      -0.21701443     -1.19209470     -2.02411741
H       0.50309710     -2.26156458     -0.81202380
H      -0.88697975     -1.35176738      1.49845613
H      -0.35019983      0.09926892      1.92339755
H      -1.07545730      1.21955261     -1.27534917
H      -2.14924517      0.32031991     -0.18985489
H      -0.14260867      2.12941932      0.67908491
H       2.14484328     -0.42036094     -0.25282284
H       1.39181286      0.77929147     -1.31784010
H       1.66710326      0.87603916      1.48986903
