27
CC(C)CN1CCOCC1
C      -2.68558881     -0.42358743      1.29882821
C      -1.78238008      0.18876322      0.22401504
C      -2.48672875      0.13933131     -1.13384241
C      -0.42394139     -0.54875723      0.20169630
N       0.51723985     -0.04967370     -0.81436088
C       1.67405053     -0.96126164     -0.97341315
C       2.69062243     -0.88926640      0.17891082
O       3.16469232      0.44848645      0.37523190
C       2.07266836      1.34305825      0.62167767
C       1.04298732      1.30223691     -0.52088288
H      -2.21178897     -0.36420622      2.28439393
H      -2.89929565     -1.47687765      1.08737228
H      -3.63999480      0.11066209      1.35517388
H      -1.62785137      1.23967404      0.49396220
H      -3.46309807      0.63311715     -1.08190412
H      -1.90198975      0.65193839     -1.90422820
H      -2.64835764     -0.89382300     -1.45971123
H       0.01924398     -0.51910844      1.20417366
H      -0.63322276     -1.60670332     -0.00818995
H       1.33574532     -1.99437157     -1.11543712
H       2.18512213     -0.67981872     -1.90342650
H       3.55874995     -1.51255882     -0.05865903
H       2.26640448     -1.26257357      1.11784820
H       2.48956903      2.35217631      0.70265295
H       1.61777439      1.09904923      1.58813693
H       1.53445397      1.66060559     -1.43522531
H       0.23491396      2.01348876     -0.32479317
