46
NS(=O)(=O)c1ccc(Nc2ccnc(NC(=O)NS(=O)(=O)c3ccc(Cl)cc3)n2)cc1
N       7.02827852     -0.60091126     -1.25644020
S       7.00171294      0.57566668     -0.05998249
O       7.58551683     -0.03484249      1.11148033
O       7.54174744      1.77164715     -0.66230214
C       5.26599644      0.79060171      0.20227306
C       4.61935411      0.06081086      1.20034635
C       3.25199242      0.25576753      1.42526064
C       2.51915736      1.17514393      0.66401937
N       1.15243683      1.43978945      0.86466841
C       0.28317907      1.14927851      1.91907903
C       0.69382429      1.12949193      3.23471426
C      -0.26966333      0.85780884      4.17525490
N      -1.55586079      0.62297155      3.86904050
C      -1.87406933      0.68359018      2.57297842
N      -3.20510682      0.44803586      2.28647452
C      -3.83088195      0.44129336      1.08000435
O      -5.02767014      0.18940301      1.01957669
N      -3.06521699      0.70139937     -0.04516463
S      -3.58767284      0.77654499     -1.60674758
O      -4.71690552      1.67314359     -1.70383322
O      -2.39795680      0.99745205     -2.40584920
C      -4.13557562     -0.88221550     -1.93140296
C      -3.21306361     -1.84192480     -2.36295078
C      -3.65036163     -3.13797419     -2.64542186
C      -5.00089470     -3.46191561     -2.50443322
Cl     -5.53366664     -5.06071935     -2.85111953
C      -5.92205438     -2.50021915     -2.08795564
C      -5.49120356     -1.20215746     -1.80595002
N      -1.00389133      0.94245351      1.58096388
C       3.19559516      1.90689032     -0.32635887
C       4.56171953      1.72308068     -0.55849331
H       7.48890695     -1.44132927     -0.90597436
H       7.45383917     -0.22341937     -2.10379764
H       5.16576339     -0.66193753      1.80261086
H       2.76877064     -0.35230068      2.18457070
H       0.63796731      1.51090038     -0.00828385
H       1.71040557      1.35006058      3.53011007
H      -0.02799947      0.82945521      5.23418476
H      -3.78634538      0.26118014      3.08775284
H      -2.06744085      0.86345902      0.08069803
H      -2.16223716     -1.58942711     -2.48574556
H      -2.93768040     -3.88789368     -2.97933999
H      -6.97406050     -2.75272808     -1.98131647
H      -6.21033204     -0.45265300     -1.47883030
H       2.65902046      2.64595431     -0.91890167
H       5.06262736      2.31129387     -1.32422472
