29
OC(=S)CCCCCCCC(O)=S
O      -3.11748819     -1.79897794      0.02815017
C      -3.83880702     -0.76632416     -0.43193832
S      -5.07066618     -1.11473888     -1.47834716
C      -3.41412503      0.58241025      0.05818051
C      -2.44710527      1.28559412     -0.89552616
C      -1.09895264      0.58507230     -1.09888057
C      -0.27031772      0.47086040      0.18235680
C       1.10760319     -0.13306644     -0.10196571
C       1.93677414     -0.25064682      1.18011193
C       3.29036562     -0.92442091      0.95273181
C       4.23535815     -0.07819282      0.15823011
O       4.25077387     -0.31685306     -1.16120537
S       5.23510241      1.11289176      0.72042677
H      -3.47314642     -2.61818910     -0.35652679
H      -4.30743713      1.20672305      0.18596352
H      -2.97615934      0.47944443      1.05703160
H      -2.26526882      2.30040213     -0.52039137
H      -2.92369224      1.40024887     -1.87704415
H      -0.52956711      1.15886601     -1.84109195
H      -1.25354527     -0.40993139     -1.53199996
H      -0.79098860     -0.15738054      0.91322141
H      -0.15002361      1.46361899      0.63239682
H       0.98655014     -1.12486929     -0.55416968
H       1.63273950      0.49494536     -0.83065783
H       2.07704654      0.74494753      1.61795179
H       1.37670671     -0.84432773      1.91316322
H       3.15768343     -1.88691681      0.44418827
H       3.75082794     -1.14847664      1.92290712
H       4.88975894      0.28728734     -1.57619720
