39
CCCCCCC(CO)CCCC
C       4.62854048     -1.51642152     -1.07956019
C       3.94941071     -0.16052633     -1.18885661
C       2.98901805      0.08053704     -0.02351009
C       2.30603260      1.44460914     -0.14216401
C       1.41152390      1.78361068      1.05395052
C       0.25232147      0.81430963      1.31615177
C      -0.71673637      0.57841929      0.13316468
C      -1.34657979      1.88015439     -0.38956062
O      -2.17466448      2.49663338      0.58603593
C      -1.78176770     -0.45476479      0.57625360
C      -2.72626954     -0.88391424     -0.55186409
C      -3.60880514     -2.07779942     -0.17704242
C      -4.58633380     -1.77882847      0.94910129
H       5.20918664     -1.59088328     -0.15455796
H       3.89189283     -2.32611517     -1.08933210
H       5.31067124     -1.66767072     -1.92200974
H       4.71485652      0.62389960     -1.20972635
H       3.40354539     -0.10711894     -2.13803139
H       2.23743728     -0.71673755     -0.00897057
H       3.53955865      0.02610100      0.92340001
H       1.72741730      1.49132999     -1.07162932
H       3.07509515      2.22350394     -0.22044699
H       2.03340693      1.82341359      1.95750381
H       1.01709825      2.79781149      0.92146858
H       0.66927619     -0.15039688      1.63205724
H      -0.31052980      1.18554156      2.18233466
H      -0.14742127      0.13125646     -0.69127260
H      -1.96314291      1.68357896     -1.27183767
H      -0.58585549      2.60103146     -0.70413112
H      -1.60162627      2.80727081      1.30679619
H      -1.26714922     -1.34642778      0.95724021
H      -2.36331205     -0.04759596      1.41190318
H      -3.36894078     -0.04676439     -0.84648837
H      -2.13381280     -1.15925513     -1.43284479
H      -4.17944953     -2.37949623     -1.06350522
H      -2.98191239     -2.93281734      0.10154028
H      -5.24990948     -2.63504831      1.10740566
H      -4.06543675     -1.58533903      1.89138803
H      -5.20663403     -0.90909091      0.71072051
