18
O=c1[nH]c2ccc([N+](=O)[O-])cc2[nH]1
O      -4.01319930     -0.85502494     -0.16954030
C      -2.83744704     -0.54509288     -0.11407607
N      -2.31756851      0.75041390      0.02337702
C      -0.93039749      0.67697125      0.04601003
C      -0.00047725      1.68314645      0.16406512
C       1.34643501      1.29877868      0.15552410
C       1.70815498     -0.07027912      0.02983507
N       3.13072789     -0.43823920      0.02451835
O       3.96191803      0.47399986      0.13129436
O       3.41331623     -1.63936719     -0.08649837
C       0.74006045     -1.08143001     -0.08952506
C      -0.56978639     -0.66596300     -0.07715613
N      -1.73748966     -1.41386896     -0.17514164
H      -2.89111594      1.57560264      0.09149931
H      -0.28880002      2.72362816      0.25930022
H       2.11121426      2.06949795      0.24708005
H       0.99789007     -2.12992845     -0.18619697
H      -1.82343529     -2.41284515     -0.27436907
