25
Cc1cc(Oc2ccccn2)nn1C
C      -3.21532876     -0.77721100      1.46185931
C      -2.14167821     -0.54488484      0.46803524
C      -0.84942372     -0.08487665      0.62550192
C      -0.30379217     -0.07987799     -0.67127420
O       0.89809277      0.29906472     -1.14648587
C       1.98125547      0.57196824     -0.33019993
C       2.97622437      1.36314054     -0.88892976
C       4.11285794      1.63410544     -0.13338254
C       4.22138848      1.09753860      1.14433045
C       3.18446373      0.30695211      1.61352190
N       2.06869395      0.02887251      0.90509589
N      -1.18584145     -0.47183137     -1.59416505
N      -2.28420927     -0.77308000     -0.87772273
C      -3.45898637     -1.26440375     -1.55920696
H      -3.49028961     -1.83618148      1.49382347
H      -2.88904633     -0.48418546      2.46502343
H      -4.10680962     -0.19207174      1.21487190
H      -0.37510047      0.20475818      1.55147504
H       2.86554368      1.75705784     -1.89318728
H       4.90728962      2.25262932     -0.54079343
H       5.09507844      1.28566403      1.75833812
H       3.22686062     -0.14022521      2.60266748
H      -3.77208164     -2.19754379     -1.08472800
H      -4.24276798     -0.50729987     -1.47946969
H      -3.22239350     -1.44807838     -2.61058335
