23
CCOC(=O)c1ccc(O)c(O)c1
C       3.93412997     -0.16617373      0.24123934
C       3.11710926      1.02035840     -0.23434672
O       1.74597471      0.86697067      0.16157522
C       0.96079725      0.16343425     -0.69016875
O       1.31439464     -0.34474673     -1.74257028
C      -0.43179819      0.07612173     -0.17252690
C      -0.82107703      0.66376953      1.04375514
C      -2.14146819      0.55379848      1.48787460
C      -3.06065401     -0.14071942      0.71559449
O      -4.34965275     -0.24672482      1.15157015
C      -2.68399097     -0.72624895     -0.49058432
O      -3.64358787     -1.39544895     -1.19882075
C      -1.37421618     -0.62419765     -0.94348282
H       3.58350150     -1.09480587     -0.22007952
H       4.99153728     -0.03215257     -0.00361745
H       3.83518790     -0.29157394      1.32448708
H       3.48633367      1.93557153      0.23988939
H       3.20606231      1.16058921     -1.31778396
H      -0.10744202      1.20993163      1.65596871
H      -2.44910273      1.00534840      2.42656316
H      -4.80333878     -0.76758233      0.45891939
H      -3.23646823     -1.74727047     -2.01011740
H      -1.07223154     -1.07824841     -1.88333779
