21
Cc1cc(=O)c2ccccc2[nH]1
C      -3.18384582     -1.01248051      0.02301505
C      -1.86277801     -0.30036540      0.11227190
C      -1.79417123      0.97313188      0.53532511
C      -0.47524460      1.64879501      0.61249721
O      -0.39497564      2.81043557      0.99635886
C       0.72041749      0.86942327      0.21146720
C       1.99292022      1.44696190      0.26077020
C       3.10311794      0.69524454     -0.12108797
C       2.93845106     -0.62341542     -0.54839307
C       1.66368181     -1.19711976     -0.59613822
C       0.54167991     -0.45578552     -0.21643608
N      -0.74249368     -1.01357978     -0.25772188
H      -4.01875048     -0.37574220      0.33436560
H      -3.37364554     -1.33250749     -1.00696390
H      -3.18147828     -1.89873366      0.66632492
H      -2.65542308      1.55706022      0.83182240
H       2.11592543      2.47463258      0.59439281
H       4.09590525      1.13727709     -0.08551680
H       3.80633523     -1.20754848     -0.84571819
H       1.55794113     -2.22495765     -0.93180148
H      -0.85356912     -1.97072618     -0.56883366
