27
CCCCCc1ccccc1
C       4.55995788     -0.14393861     -0.09900724
C       3.13953913     -0.62610097     -0.34679445
C       2.10926232      0.37232520      0.18033249
C       0.68170067     -0.11629990     -0.07082560
C      -0.34811534      0.88459962      0.45760168
C      -1.75974051      0.41225430      0.21491386
C      -2.42362154      0.73857259     -0.97510588
C      -3.72404387      0.28715313     -1.20612527
C      -4.37041955     -0.49759983     -0.25294575
C      -3.71649924     -0.83344806      0.93102368
C      -2.41607063     -0.38292420      1.16375051
H       5.28016490     -0.87278847     -0.48370083
H       4.74850645     -0.01235284      0.97125927
H       4.74295250      0.81175274     -0.60050795
H       2.99963277     -1.59803747      0.14051349
H       2.99411213     -0.77848304     -1.42258919
H       2.25618757      1.34374360     -0.30733098
H       2.26170266      0.52413285      1.25586623
H       0.53148104     -0.27282547     -1.14658445
H       0.53698468     -1.09058414      0.41306549
H      -0.20478807      1.86258921     -0.01924205
H      -0.19932026      1.04901667      1.53241012
H      -1.92991242      1.34630347     -1.72987525
H      -4.23202590      0.54680374     -2.13105939
H      -5.38260666     -0.84912558     -0.43369296
H      -4.21859478     -1.44804725      1.67340865
H      -1.91642595     -0.65669131      2.09012464
