26
CC(=NC#N)N(C)Cc1ccc(Cl)nc1
C      -2.92034702      0.29609713      0.89089681
C      -1.87531750     -0.32161779     -0.04050877
N      -1.87336868     -1.59921425     -0.30709671
C      -2.80447717     -2.39414818      0.22954286
N      -3.61077396     -3.08176455      0.69862016
N      -0.93422726      0.51800094     -0.64127381
C      -0.91989785      1.96322035     -0.44786051
C       0.20277921     -0.03453730     -1.38695961
C       1.43076376     -0.12224559     -0.51807415
C       1.56939263     -1.11257220      0.46057963
C       2.71546132     -1.14929986      1.25049324
C       3.68392969     -0.18654982      1.02995466
Cl      5.12409865     -0.15692293      1.95991741
N       3.59407462      0.78592894      0.10023670
C       2.47105424      0.79368289     -0.65110705
H      -2.57461081      1.23554273      1.32596514
H      -3.83519498      0.48290273      0.32110678
H      -3.14545949     -0.36877606      1.72899096
H      -0.25650378      2.46373963     -1.16166748
H      -0.57384685      2.20993024      0.56099974
H      -1.91861819      2.38555961     -0.59982900
H       0.40638072      0.59055403     -2.26626269
H      -0.01757290     -1.02589034     -1.80155495
H       0.78799177     -1.85444277      0.61006563
H       2.84186791     -1.90815435      2.01392553
H       2.43242191      1.59097678     -1.38943327
