29
O=C([O-])CCCCCCCC(=O)[O-].[Li+].[Li+]
O      -5.10425171      2.32646229     -0.09817673
C      -4.41724820      1.69607656     -0.95497399
O      -4.64541920      1.53090173     -2.18558525
C      -3.14278143      1.05126254     -0.39256642
C      -2.43147880      0.09349369     -1.34504557
C      -1.31483026     -0.72056461     -0.68276981
C      -0.08849320      0.10603861     -0.28037607
C       1.01755971     -0.80216332      0.27071461
C       2.29119762     -0.02784475      0.62561083
C       3.37176539     -0.96751782      1.15969984
C       4.71961960     -0.33280331      1.51728796
O       5.57503521     -1.15357952      1.96449665
O       4.83438784      0.90883809      1.33009417
Li      0.00000000      0.00000000      0.00000000
Li      0.00000000      0.00000000      0.00000000
H      -3.42207968      0.51401795      0.52236330
H      -2.46387541      1.86147632     -0.10246067
H      -2.02753502      0.64920824     -2.20013666
H      -3.16430503     -0.61424869     -1.75324328
H      -0.99882560     -1.49553099     -1.39271655
H      -1.71268556     -1.24467758      0.19483924
H      -0.36432317      0.84645115      0.47872565
H       0.28674757      0.65453828     -1.15244242
H       0.64725564     -1.32455022      1.16147917
H       1.26019561     -1.57077570     -0.47365716
H       2.66279668      0.49611987     -0.26330360
H       2.06245458      0.73809472      1.37637817
H       3.57123372     -1.74794517      0.41423475
H       2.99788309     -1.47077835      2.06041271
