17
CC(C)(C=O)CO
C      -0.23973421      1.52103796      0.11742764
C      -0.19149236     -0.01154962      0.12296620
C      -1.50690172     -0.57388188     -0.42998832
C       0.02013884     -0.46936227      1.55877138
O      -0.71148614     -1.25968977      2.14938649
C       0.98475926     -0.54670831     -0.70489116
O       2.20929642      0.05286116     -0.29389577
H      -1.09566907      1.88833898      0.69579403
H      -0.33108086      1.90916014     -0.90295062
H       0.65798002      1.96043739      0.56676092
H      -2.36278886     -0.24922990      0.17302321
H      -1.67722353     -0.24185297     -1.46015511
H      -1.50399568     -1.67005587     -0.42747600
H       0.90946319     -0.05376492      2.06616707
H       1.08602475     -1.63220052     -0.59210481
H       0.84321767     -0.32162458     -1.76790219
H       2.90949229     -0.30191502     -0.87093296
