26
N#CCCN[C@@H](CCC(=O)O)C(=O)O
N       4.70402129      2.08985773      2.09246782
C       4.08410649      1.69181656      1.19590555
C       3.29383756      1.18371838      0.06814890
C       1.93023662      0.68363465      0.55337306
N       1.12923537      0.18779985     -0.57519184
C      -0.21988852     -0.27012679     -0.13874496
C      -1.09008124     -0.41472128     -1.39842031
C      -2.55799535     -0.75633716     -1.12661497
C      -3.29215239      0.25064812     -0.28291981
O      -4.16042056     -0.00544713      0.53449740
O      -2.96425245      1.52593574     -0.55109629
C      -0.10003391     -1.61791956      0.58314692
O       0.74964643     -2.47244512      0.38174410
O      -1.06157785     -1.80362532      1.50648021
H       3.83935068      0.37008352     -0.42444901
H       3.15989497      1.97979960     -0.67386058
H       2.07475755     -0.10645387      1.30044379
H       1.39967269      1.50854148      1.04575919
H       1.60379405     -0.61582460     -1.00038988
H      -0.64642388      0.47352610      0.54345052
H      -1.04604116      0.51715992     -1.97784385
H      -0.67708846     -1.20070449     -2.04524610
H      -2.63151061     -1.73181538     -0.63457900
H      -3.09474531     -0.83499179     -2.07903407
H      -3.55280696      2.05289050      0.03023840
H      -0.87353505     -2.68499966      1.89349844
