30
CC(C)[C@@]12CC[C@@](C)(O1)[C@@H](O)C2
C       2.61677640      0.55450854      1.50732024
C       1.94831553      0.10817617      0.20604680
C       2.41174898     -1.30604908     -0.16133995
C       0.41969375      0.23903329      0.26333361
C      -0.08566980      1.69032283      0.35938428
C      -1.49745686      1.58409682     -0.21534763
C      -1.58540508      0.10050403     -0.58627423
C      -2.56151606     -0.20828323     -1.70107345
O      -0.21518103     -0.18604675     -0.97429286
C      -1.70862667     -0.76394046      0.68343540
O      -1.92618151     -2.13854506      0.36700937
C      -0.31745873     -0.61834736      1.31060901
H       2.31424559     -0.07503821      2.35057289
H       3.70721333      0.49529006      1.42101162
H       2.36353836      1.59167955      1.74805899
H       2.30910574      0.76092052     -0.60061208
H       1.94953054     -1.64649200     -1.09332925
H       3.49741311     -1.32456923     -0.30851617
H       2.17631269     -2.03123971      0.62336779
H       0.50971543      2.36211049     -0.27005067
H      -0.07626980      2.08388787      1.38053353
H      -2.27015303      1.88882716      0.49734614
H      -1.57759755      2.22682440     -1.09965021
H      -3.59381147     -0.03008038     -1.38514029
H      -2.47009943     -1.24606621     -2.03817077
H      -2.35494117      0.41256422     -2.57998158
H      -2.51234082     -0.43722343      1.34969202
H      -1.26378079     -2.37140094     -0.31186510
H      -0.35502494     -0.11740004      2.28381142
H       0.14790528     -1.59802386      1.45390607
