45
Cc1cc(N(CCO)CCO)ccc1N=Nc1ccc([N+](=O)[O-])cc1Cl
C       0.44801368      1.82571561     -1.64160111
C      -0.17641746      0.72096430     -0.83555936
C      -1.57079496      0.73048445     -0.60735406
C      -2.23740411     -0.25442158      0.14719118
N      -3.61297105     -0.22580045      0.35999320
C      -4.46681678      0.82493383     -0.22737282
C      -4.81750904      0.53713334     -1.69282360
O      -5.69234175      1.54659301     -2.19010517
C      -4.34763710     -1.35173586      0.97997234
C      -4.65202703     -1.06523433      2.45764189
O      -3.45844476     -0.86998876      3.20966397
C      -1.41211620     -1.24876356      0.69646672
C      -0.02400927     -1.26944112      0.49753089
C       0.60861584     -0.28268156     -0.25751839
N       2.00086332     -0.33811604     -0.45766040
N       2.59502532      0.15887663      0.52560605
C       3.98768398      0.10387654      0.32528311
C       4.66050620     -1.12456496      0.43962478
C       6.04553748     -1.20526675      0.26896306
C       6.77247262     -0.04164896     -0.01056605
N       8.22768873     -0.11883545     -0.19163448
O       8.76351315     -1.22936688     -0.07393813
O       8.83113922      0.93132307     -0.45069302
C       6.12585818      1.19568091     -0.11484550
C       4.73929893      1.26137477      0.05826502
Cl      3.98165746      2.81037954     -0.06738037
H       0.86024841      2.58797095     -0.97384848
H       1.24324592      1.44228003     -2.28868464
H      -0.28947449      2.30258845     -2.29602431
H      -2.12798911      1.55060971     -1.05173008
H      -5.40383083      0.89911711      0.34097935
H      -4.02309507      1.82170452     -0.11660943
H      -3.92307283      0.51743469     -2.32230277
H      -5.32219330     -0.43002884     -1.78711347
H      -5.86854859      1.33176062     -3.12278497
H      -5.29924978     -1.50226032      0.45473194
H      -3.81118817     -2.29946125      0.87422847
H      -5.19635491     -1.90562966      2.89866830
H      -5.26894474     -0.16731218      2.56589685
H      -2.95095411     -0.20190298      2.70695805
H      -1.81623230     -2.03657953      1.32569331
H       0.56735789     -2.06056893      0.95102139
H       4.09131672     -2.02557195      0.66130480
H       6.53494123     -2.17374586      0.35801619
H       6.68463347      2.10553670     -0.32555027
