39
CCCCCCOc1ccc(C(C)=NO)c(O)c1
C      -6.67685365     -0.10394110      0.51366518
C      -5.44117463     -0.87687988      0.94823124
C      -4.14157872     -0.07688767      0.82402602
C      -3.76119611      0.23761172     -0.62515753
C      -2.46670888      1.04355539     -0.74983939
C      -1.21951978      0.28192199     -0.30521199
O      -0.08580766      1.10780905     -0.58146864
C       1.14532384      0.60507738     -0.26143532
C       1.39923516     -0.64175708      0.30895213
C       2.71477678     -1.03103938      0.58425071
C       3.78798173     -0.18114173      0.28450032
C       5.16387745     -0.65806838      0.60091952
C       6.26917211     -0.37308874     -0.39441689
N       5.35211768     -1.31665483      1.71042648
O       6.69160372     -1.68770852      1.86828821
C       3.52778023      1.07491416     -0.27025638
O       4.54756345      1.95092027     -0.51923055
C       2.21380044      1.46154358     -0.54672858
H      -6.75692258      0.84519645      1.05286060
H      -7.57805155     -0.68923333      0.72321355
H      -6.66285819      0.10675856     -0.55948141
H      -5.36655840     -1.80363167      0.36753895
H      -5.56773937     -1.16999781      1.99739406
H      -3.34472156     -0.66504602      1.29285294
H      -4.22727667      0.85497784      1.39584566
H      -4.56091737      0.82012205     -1.09612424
H      -3.66973668     -0.69465382     -1.19536713
H      -2.33870392      1.34721720     -1.79691334
H      -2.54673021      1.97894777     -0.18182756
H      -1.26948703      0.07664956      0.76955300
H      -1.14530010     -0.65659425     -0.86725984
H       0.60211427     -1.33554704      0.55485633
H       2.90045553     -2.00568258      1.03151215
H       6.92043298      0.41155496      0.00056274
H       6.85988090     -1.27827031     -0.56518772
H       5.87179480     -0.06469940     -1.36469731
H       6.68528817     -2.12190406      2.74089982
H       4.17637452      2.79364126     -0.83035701
H       1.99826932      2.43400840     -0.98061869
