36
CC(=O)N(C)N(C(=O)C(=O)N(C)C)c1ccccc1
C      -0.42628378     -3.00728210      1.12693376
C      -0.10899280     -1.54158209      0.97965384
O       0.65145268     -0.97873543      1.76695047
N      -0.71531365     -0.90106520     -0.08847871
C      -1.56207779     -1.50240711     -1.11027802
N      -0.43468534      0.48355582     -0.30712141
C       0.74668142      0.81187114     -1.00566682
O       1.19378756      1.92597999     -1.26698820
C       1.57501138     -0.37867337     -1.50296178
O       1.15020033     -1.01815181     -2.46255227
N       2.76901171     -0.65750399     -0.83475463
C       3.29616075      0.17787012      0.23435129
C       3.65888672     -1.66567742     -1.37477473
C      -1.35732804      1.45141728      0.22859961
C      -2.42336835      1.03772669      1.05075745
C      -3.34318460      1.95157356      1.57868655
C      -3.22046447      3.30538970      1.29403583
C      -2.17876918      3.74099242      0.48393010
C      -1.25880214      2.82383171     -0.04206673
H      -0.01837015     -3.37262908      2.07418954
H       0.03120406     -3.57067996      0.30967540
H      -1.50754956     -3.16629544      1.14013687
H      -1.07726005     -2.40087082     -1.50164648
H      -1.75289088     -0.80427131     -1.93063294
H      -2.51109765     -1.79068436     -0.64924582
H       4.04497890      0.85250726     -0.19074894
H       3.76554563     -0.46116465      0.98809072
H       2.51868296      0.76962129      0.72012720
H       3.15845219     -2.29510774     -2.11523791
H       4.50739904     -1.16538797     -1.85076868
H       4.01779807     -2.29947762     -0.55870092
H      -2.55535457     -0.00608716      1.31824080
H      -4.15000269      1.60124679      2.21730087
H      -3.93032776      4.01900358      1.70332840
H      -2.07360873      4.79872683      0.25432517
H      -0.47952116      3.23242045     -0.67668888
