15
Cc1ccc(Cl)cc1
C       2.25748501     -0.09665381     -0.11599458
C       0.76167149     -0.03413705     -0.01426266
C      -0.00181538     -1.20771631     -0.06878284
C      -1.39591680     -1.14782278     -0.00569681
C      -2.03136308      0.08714812      0.10151425
Cl     -3.74883892      0.16139896      0.17807103
C      -1.28511239      1.26268838      0.14218655
C       0.10895987      1.20216030      0.07906152
H       2.56330928     -0.04631752     -1.16548280
H       2.64006611     -1.02521971      0.32057425
H       2.72087831      0.73283260      0.42844423
H       0.48507320     -2.17634597     -0.15989998
H      -1.97725944     -2.06490895     -0.04353868
H      -1.77998134      2.22680774      0.21975523
H       0.68284408      2.12608599      0.10405129
