32
CCC(C)(C)C1CCC(=O)CC1
C      -3.45936770      0.12118020      0.65103633
C      -1.95923226      0.08527361      0.92929448
C      -1.01437143     -0.04962049     -0.30994545
C      -1.47249459     -1.24759811     -1.17373019
C      -1.11717519      1.22407720     -1.17438036
C       0.46931221     -0.29413782      0.19837494
C       1.01591747      0.84846148      1.08964378
C       2.39318423      0.53322466      1.66290102
C       3.35321506      0.15745741      0.56324909
O       4.49537814      0.61070443      0.51714509
C       2.87870936     -0.90014364     -0.40032449
C       1.49158064     -0.55897196     -0.93468119
H      -3.82028624     -0.83123651      0.25300294
H      -3.72679825      0.91996827     -0.04546394
H      -4.00171974      0.30413782      1.58509654
H      -1.76786718     -0.74518106      1.62098154
H      -1.72078400      1.00617006      1.47354421
H      -0.87618009     -1.34745730     -2.08570585
H      -2.50733271     -1.13458534     -1.51289028
H      -1.40161761     -2.18619694     -0.61357303
H      -0.89508424      2.12557598     -0.59476626
H      -0.43167034      1.19262413     -2.02671979
H      -2.12331718      1.34610225     -1.58972666
H       0.44196673     -1.20258166      0.81869685
H       1.08225604      1.77431067      0.50581559
H       0.34771254      1.04435541      1.93285449
H       2.34062715     -0.30073282      2.37106874
H       2.78268159      1.40764476      2.19488849
H       3.58878762     -0.97230766     -1.23094700
H       2.86993632     -1.86157495      0.12443796
H       1.57194132      0.32439519     -1.57874374
H       1.17209233     -1.39333730     -1.56530914
