12
C=CCC
C       1.95474788      0.23495579      0.27127425
C       0.81050470      0.33664179     -0.41649544
C      -0.34627491     -0.60798418     -0.26932455
C      -1.59327104      0.11232207      0.21933657
H       2.75986261      0.94701066      0.11778497
H       2.11563683     -0.55408309      0.99926539
H       0.69952743      1.14304897     -1.13885666
H      -0.10339632     -1.42048914      0.42543935
H      -0.54980791     -1.06937519     -1.24236715
H      -1.42831424      0.56599596      1.20250748
H      -2.42659705     -0.59213834      0.30723381
H      -1.89261797      0.90409469     -0.47579802
