32
Nc1cccc2c1CN(C1CCC(=O)NC1=O)C2=O
N       3.15453465      2.09873634      0.84572969
C       3.12008021      0.80624545      0.31771289
C       4.31355437      0.15161123     -0.02687787
C       4.31458620     -1.10821885     -0.65874329
C       3.11509559     -1.72468412     -1.00410571
C       1.95238120     -1.03638937     -0.72004690
C       1.93845210      0.21117096     -0.09095064
C       0.52999248      0.68972741      0.03477284
N      -0.23408317     -0.35986713     -0.62769630
C      -1.68553873     -0.46789035     -0.55698623
C      -2.38838579      0.79531362     -1.04520070
C      -3.89334858      0.57394520     -1.02970804
C      -4.36846222      0.15548826      0.34216301
O      -5.44679376      0.51737686      0.80297727
N      -3.53681265     -0.67161487      1.05326608
C      -2.17927690     -0.79693746      0.86211750
O      -1.45229394     -1.13816677      1.79218099
C       0.56805633     -1.42231910     -1.01163802
O       0.22347089     -2.48093685     -1.50061811
H       2.33807388      2.35298982      1.39197040
H       4.01533677      2.31320552      1.34218985
H       5.27104846      0.61563311      0.20122767
H       5.25992635     -1.59430569     -0.88820783
H       3.08792156     -2.69108374     -1.49564441
H       0.37122791      1.63450286     -0.49223633
H       0.23272686      0.76578408      1.08396629
H      -1.98546977     -1.31609487     -1.18648257
H      -2.05976861      1.04982081     -2.05946674
H      -2.13879347      1.64713078     -0.39951404
H      -4.40152199      1.50370360     -1.30738447
H      -4.18631065     -0.20184607     -1.74565456
H      -3.84960557     -0.87203068      1.99420488
