52
CCCCCCCCCCCCN1CC(C(=O)O)CC1=O
C       7.18044267      0.42307973     -1.01054660
C       6.12572936     -0.60086917     -0.62174723
C       5.08883725     -0.00395291      0.33090811
C       4.02769872     -1.03885366      0.71253856
C       3.00081768     -0.52044927      1.72575076
C       2.10744996      0.58779546      1.16307450
C       1.02717380      1.06261024      2.14212988
C       0.01290888      0.00369370      2.58932786
C      -0.70134457     -0.75278911      1.46434437
C      -1.43598881      0.11704478      0.44037828
C      -2.60727453      0.90333501      1.03799116
C      -3.30869360      1.78624111      0.00240941
N      -3.92226343      1.02345980     -1.07116502
C      -5.18728700      0.34742214     -0.92400454
C      -5.26561188     -0.56252984     -2.14046958
C      -4.80940082     -1.96397656     -1.80865605
O      -4.78477689     -2.48275003     -0.70368370
O      -4.50950850     -2.69782018     -2.89891402
C      -4.37897570      0.12365292     -3.18286977
C      -3.41646385      0.93732133     -2.35626382
O      -2.39242408      1.45049391     -2.77650944
H       7.91525737     -0.02647688     -1.68532125
H       7.71238137      0.79615030     -0.12952104
H       6.72623493      1.27523363     -1.52405587
H       6.61488222     -1.46067462     -0.15073984
H       5.62996107     -0.96650033     -1.52883334
H       4.61862783      0.85981301     -0.15104065
H       5.58855608      0.36076588      1.23668155
H       3.50842871     -1.38785585     -0.18921709
H       4.52447085     -1.91505314      1.14881465
H       2.38332702     -1.37169968      2.03192667
H       3.51536759     -0.16153967      2.62480539
H       1.64659130      0.25282748      0.22668127
H       2.72371741      1.45846593      0.90910793
H       1.51431923      1.47184107      3.03679204
H       0.49012609      1.90229754      1.68388771
H       0.51621203     -0.72931736      3.23143948
H      -0.73193628      0.48875118      3.23255784
H      -1.41667336     -1.45180825      1.91657081
H       0.02727250     -1.37465040      0.93028185
H      -1.81152793     -0.54883143     -0.34694621
H      -0.73537407      0.80549801     -0.04630104
H      -2.24733301      1.55308777      1.84413622
H      -3.32575064      0.20478973      1.48396614
H      -4.09611266      2.37761326      0.48276705
H      -2.58616492      2.48925314     -0.42846641
H      -5.97344711      1.10986965     -0.95294693
H      -5.23162682     -0.17216338      0.03680285
H      -6.29976441     -0.65732315     -2.49345544
H      -4.25981896     -3.57752170     -2.54450416
H      -4.96640581      0.81542717     -3.79699034
H      -3.82484229     -0.56242833     -3.82872893
