19
COC(=O)C(N)CO.[Cl-].[H+]
C       2.85961066      0.36140540      0.19471130
O       1.48727663      0.49155294     -0.02296259
C       0.62669982     -0.58753977      0.11588005
O       1.07518834     -1.71727924      0.44492747
C      -0.81918782     -0.35915084     -0.13509947
N      -1.52344724     -1.56927860      0.05638771
C      -1.33042382      0.79434431      0.69157420
O      -2.66242669      1.06192930      0.38533101
Cl      0.00000000      0.00000000      0.00000000
H       0.00000000      0.00000000      0.00000000
H       3.42011528      0.16217308     -0.75647052
H       3.27060273      1.34591237      0.55427917
H       3.11371788     -0.43231739      0.94999277
H      -0.93925749     -0.05067178     -1.20802111
H      -2.44854707     -1.65096775     -0.36290156
H      -1.34394082     -2.08826924      0.91608134
H      -0.72003133      1.69995727      0.49164754
H      -1.26509972      0.54895401      1.77358268
H      -2.80084933      1.98924591      0.07073410
