58
CCCCOCCOC(=O)CCCCC(=O)OCCOCCCC
C       9.16856583      2.91860115     -0.78561999
C       7.92924223      2.09421307     -1.09770821
C       8.21856820      0.59464140     -1.00683360
C       6.99962142     -0.25580990     -1.36450317
O       5.85201710      0.05194078     -0.57539906
C       5.92759927     -0.44925302      0.76360563
C       4.59125132     -0.21361471      1.46280609
O       3.61172302     -1.10923725      0.90989439
C       2.37045997     -0.98552193      1.45693252
O       2.07706322     -0.22180899      2.36544233
C       1.42529790     -1.95038244      0.77675837
C      -0.00963455     -1.85636229      1.29759696
C      -0.74322873     -0.61306901      0.77829502
C      -2.14560891     -0.47956492      1.36452105
C      -3.08022153     -1.54658477      0.85575779
O      -3.40209079     -2.54000440      1.49345633
O      -3.49504122     -1.25488248     -0.40522539
C      -4.40320543     -2.20415192     -0.99522406
C      -5.82381020     -2.03253102     -0.45766535
O      -6.34245712     -0.77388426     -0.90042825
C      -7.65456312     -0.53495340     -0.39510457
C      -8.14526812      0.82257478     -0.89039585
C      -7.29060733      1.97509814     -0.35719003
C      -7.81755772      3.32175170     -0.82773438
H       9.97429150      2.69859568     -1.49324556
H       8.94000121      3.98718282     -0.85199299
H       9.53335552      2.71159049      0.22569477
H       7.57521705      2.34382047     -2.10472374
H       7.13394190      2.37005539     -0.39611135
H       8.55571808      0.35688069      0.00847360
H       9.04064753      0.33363445     -1.68416533
H       6.72522195     -0.06810329     -2.40860641
H       7.23589548     -1.32339118     -1.28472754
H       6.71454101      0.08446189      1.30551107
H       6.15467591     -1.52142513      0.73917191
H       4.26059638      0.81990306      1.30794021
H       4.69892537     -0.42162278      2.53313734
H       1.44798314     -1.76813505     -0.30328451
H       1.80144056     -2.96169485      0.97014274
H      -0.55022951     -2.75288398      0.97099991
H      -0.01433096     -1.86165383      2.39436954
H      -0.79446671     -0.65159297     -0.31669252
H      -0.17645901      0.28778390      1.03877437
H      -2.57344561      0.49807678      1.11217215
H      -2.12168940     -0.53083648      2.45898927
H      -4.03733449     -3.22435233     -0.83205667
H      -4.38728950     -2.01452849     -2.07347420
H      -6.46032569     -2.83507711     -0.84616808
H      -5.83639657     -2.05742618      0.63665589
H      -7.64173800     -0.55637713      0.70107643
H      -8.32894395     -1.32017395     -0.75556662
H      -8.11840200      0.83906901     -1.98696597
H      -9.18787272      0.96139094     -0.58069624
H      -7.28282704      1.95552933      0.73906007
H      -6.25238966      1.86247970     -0.69074211
H      -7.81245948      3.38539750     -1.92053619
H      -8.84193057      3.48589142     -0.47837614
H      -7.19203641      4.13032690     -0.43718817
