33
COc1ccc(NS(=O)(=O)c2ccc([N+](=O)[O-])cc2)cc1
C      -4.41235176     -1.80107887     -1.00667549
O      -3.58828097     -0.79140899     -1.57673571
C      -2.80291825     -0.07515585     -0.71757823
C      -2.72339376     -0.25138435      0.66389830
C      -1.86943613      0.55310223      1.42663487
C      -1.09322459      1.53374257      0.81148364
N      -0.19114152      2.33392167      1.56319723
S       1.10980573      1.60861519      2.35449878
O       1.99901600      2.68351001      2.74130533
O       0.62051945      0.65266790      3.32376319
C       1.91726847      0.70096119      1.04870584
C       1.65042144     -0.66357673      0.88401099
C       2.29087343     -1.37558789     -0.13310533
C       3.20491150     -0.71706852     -0.96906518
N       3.87815453     -1.46302244     -2.04082350
O       3.64467306     -2.67622768     -2.13318883
O       4.63704576     -0.83280244     -2.79073969
C       3.48583814      0.64646037     -0.79003659
C       2.84235146      1.35621349      0.22715761
C      -1.17396472      1.72011762     -0.56687194
C      -2.02582391      0.91446533     -1.32593947
H      -3.80855901     -2.57822241     -0.52655208
H      -5.13516648     -1.37125122     -0.30535260
H      -4.97528204     -2.27102242     -1.81886853
H      -3.31168317     -1.00192053      1.18170424
H      -1.82761021      0.40953954      2.50411263
H       0.03516214      3.26313571      1.21287487
H       0.94476449     -1.17487188      1.53687104
H       2.07004800     -2.43423985     -0.25866528
H       4.20272173      1.16326399     -1.42599674
H       3.06997425      2.41029376      0.37557219
H      -0.57810222      2.47764223     -1.06700248
H      -2.08661083      1.05732438     -2.40259306
