14
S=c1[nH]cnc2[nH]cnc12
S      -1.49243032      2.73631485      0.54353280
C      -1.09125509      1.16600135      0.21023879
N      -2.01882785      0.17300250     -0.05597114
C      -1.65452162     -1.13693804     -0.33261089
N      -0.43482174     -1.58643931     -0.37615307
C       0.47829092     -0.62102263     -0.11680608
N       1.82954613     -0.78968528     -0.09119784
C       2.38168603      0.42940488      0.20808768
N       1.46480944      1.36185099      0.37414014
C       0.27460360      0.71126916      0.17238470
H      -2.99377011      0.43682875     -0.04257548
H      -2.51493800     -1.79885033     -0.52142672
H       2.32058135     -1.65459832     -0.26209574
H       3.45104727      0.57286143      0.29045286
