25
CCC(Br)(CC)C(=O)NC(N)=O
C      -1.36372657      2.06418715      0.73140583
C      -1.13382940      1.42166244     -0.63240590
C      -0.67975778     -0.05705636     -0.57687233
Br     -0.45492283     -0.62446417     -2.47385304
C      -1.74472073     -0.95799498      0.08493223
C      -1.47525575     -2.46234125      0.06324399
C       0.70846871     -0.17209004      0.08683945
O       0.86023783     -0.66583370      1.20586889
N       1.74078503      0.44479911     -0.60549320
C       3.07382669      0.29859029     -0.35643241
N       3.43261059      0.06204663      0.92399963
O       3.90306009      0.38397386     -1.25458350
H      -1.62547161      3.11994923      0.60459505
H      -0.46613948      2.01670556      1.35494468
H      -2.18760681      1.58571151      1.26831970
H      -2.06477500      1.50410075     -1.20898514
H      -0.39379072      2.03071733     -1.16787878
H      -2.72044898     -0.78418989     -0.38718566
H      -1.85594451     -0.67104384      1.13786583
H      -0.50015070     -2.71340093      0.48844286
H      -1.52716276     -2.87299488     -0.94877548
H      -2.23684829     -2.97914013      0.65734199
H       1.57314861      0.61751839     -1.58883602
H       4.39620502     -0.20592902      1.06953894
H       2.74220935     -0.38348306      1.52396239
