12
CO[P+](=O)OC
C       2.47601013      0.20072044     -0.50430989
O       1.12553019      0.17095064     -0.93577803
P       0.06751707     -0.51495058      0.07981868
O       0.08627225      0.66088773      1.26033282
O      -1.28261007     -0.04639355     -0.68103605
C      -2.49757382     -0.24816599      0.02181405
H       2.85315546     -0.80696480     -0.29448411
H       3.07979925      0.62030239     -1.31513528
H       2.60450649      0.84455777      0.37288328
H      -2.55314291      0.37905742      0.91847953
H      -2.63841530     -1.30260196      0.28643342
H      -3.32104875      0.04260049     -0.63802955
