26
CCC(=O)Nc1ccc(O)c(C(=O)O)c1
C       4.40552481      1.24275050     -0.00878379
C       3.46129608      0.16221910      0.48807544
C       2.01746071      0.41374595      0.08016994
O       1.68493411      1.39154827     -0.57796114
N       1.18073218     -0.58808460      0.54763904
C      -0.21441507     -0.69983277      0.37108965
C      -0.83689951     -1.81606679      0.94636631
C      -2.21411731     -2.00899158      0.82275464
C      -2.98246257     -1.08619359      0.12178747
O      -4.32376471     -1.35281860      0.04968739
C      -2.38046542      0.03644526     -0.46101737
C      -3.22106614      1.00344800     -1.20179064
O      -4.42794156      0.89073289     -1.34467549
O      -2.54106566      2.03829507     -1.71704555
C      -0.99341455      0.22389446     -0.33231917
H       5.43139869      1.02589417      0.30442976
H       4.38802660      1.30806310     -1.10172157
H       4.12589862      2.22329324      0.39050298
H       3.77311415     -0.80718528      0.08314927
H       3.50986385      0.11194188      1.58171798
H       1.62063039     -1.32912197      1.07942118
H      -0.26154104     -2.55395782      1.50001963
H      -2.68787533     -2.87786683      1.27244450
H      -4.76126039     -0.63933575     -0.46477789
H      -3.21116449      2.58863617     -2.17231651
H      -0.54142643      1.09854751     -0.78937750
