22
Clc1cccc(-c2ccc(Cl)c(Cl)c2Cl)c1
Cl      3.70343328      2.62433430     -0.62129722
C       2.85325556      1.15714513     -0.32775773
C       3.56262805     -0.02814827     -0.14898655
C       2.87320743     -1.21541380      0.09146228
C       1.47757354     -1.21191977      0.15244293
C       0.75281445     -0.02257050     -0.02943065
C      -0.71591151     -0.01923950      0.04293750
C      -1.32316378      0.34560492      1.25664109
C      -2.71095677      0.36537957      1.38671196
C      -3.52137259      0.02045547      0.30390000
Cl     -5.23258309      0.07160350      0.55694447
C      -2.94702913     -0.34688196     -0.92205549
Cl     -3.96661537     -0.77401830     -2.26450450
C      -1.54340341     -0.36531419     -1.05081453
Cl     -0.80472482     -0.80769444     -2.56604493
C       1.45937119      1.16631077     -0.26831997
H       4.64828979     -0.03380269     -0.19775762
H       3.42110037     -2.14454513      0.22863347
H       0.95494470     -2.14888224      0.33802633
H      -0.70806148      0.61613942      2.11493384
H      -3.15440384      0.65099641      2.33860642
H       0.92160743      2.10046130     -0.41427109
