32
CC(C)NCC(O)c1ccc(O)c(O)c1
C      -3.73065706      0.43572603      0.26640886
C      -3.31319872     -0.51712325     -0.85447496
C      -3.26099109      0.20345190     -2.20249913
N      -2.07786950     -1.25495284     -0.54545735
C      -0.86897443     -0.41463401     -0.40897166
C       0.32762377     -1.29835978      0.02593676
O      -0.04862229     -2.03496604      1.19634894
C       1.57076320     -0.47512181      0.28336006
C       1.92170917     -0.05035932      1.57835207
C       3.06202041      0.72947218      1.79868712
C       3.85253347      1.09199348      0.71668427
O       4.97880585      1.85317758      0.86592207
C       3.51218842      0.68330629     -0.56922464
O       4.29227526      1.04805812     -1.62941553
C       2.38422588     -0.09342977     -0.79595135
H      -4.74175679      0.81652937      0.08388041
H      -3.06460645      1.30105307      0.34360235
H      -3.74249917     -0.07756352      1.23412362
H      -4.10110533     -1.27755640     -0.92813387
H      -2.56232371      1.04632011     -2.19124844
H      -2.96067223     -0.48127601     -3.00305794
H      -4.24948725      0.59889510     -2.46121941
H      -1.91500296     -1.93491152     -1.29155153
H      -1.03507074      0.34500049      0.36271734
H      -0.63151621      0.09298220     -1.34996114
H       0.54475266     -2.04348077     -0.74956223
H      -1.00666545     -2.19806164      1.07654100
H       1.30277698     -0.33678538      2.42761546
H       3.30739751      1.03506848      2.81031177
H       5.09165014      2.03552813      1.81475825
H       5.01538499      1.57057173     -1.22831089
H       2.14691164     -0.39855220     -1.81136664
