45
OCC1OC(OC2C(CO)OC(O)C(O)C2O)C(O)C(O)C1O
O      -3.30230568      3.63447924     -0.47029174
C      -2.31616322      2.82471495      0.16101339
C      -2.30583253      1.39399444     -0.39861819
O      -1.18158713      0.69295068      0.14696605
C      -1.03945659     -0.60562543     -0.41487994
O       0.10630148     -1.25290927      0.16180730
C       1.36102113     -0.73583230     -0.32032126
C       1.79164454      0.59286811      0.33776908
C       1.63633228      0.65243920      1.86562499
O       1.97504793      1.96106635      2.33079753
O       3.12570644      0.96604273     -0.05487667
C       4.11797073     -0.01699672      0.22064388
O       5.35329698      0.48329622     -0.27683032
C       3.81658254     -1.36903502     -0.45434035
O       3.93835172     -1.22314062     -1.88324818
C       2.40999847     -1.84302354     -0.10078856
O       2.37336056     -2.31007963      1.25129044
C      -2.26957928     -1.47749301     -0.06272494
O      -2.35064713     -1.69285348      1.35510873
C      -3.55853562     -0.80412304     -0.53321838
O      -3.64340689     -0.82023428     -1.96839629
C      -3.61721475      0.65760055     -0.06077835
O      -4.73417993      1.31429690     -0.67729217
H      -4.14673675      3.13758891     -0.42238566
H      -2.49746775      2.82246592      1.24155155
H      -1.33969837      3.29574294      0.00608945
H      -2.19560794      1.47052927     -1.48905809
H      -0.91961353     -0.54093201     -1.50384827
H       1.29879526     -0.57723809     -1.40585152
H       1.16430160      1.39400798     -0.06882008
H       2.29619212     -0.04545067      2.38473600
H       0.60890139      0.44326784      2.17559929
H       2.78584566      2.22317628      1.85280541
H       4.22953680     -0.13459808      1.30299754
H       5.27371056      0.37053666     -1.24327184
H       4.57591473     -2.09435829     -0.13818811
H       4.07893615     -2.11463010     -2.25011347
H       2.14132078     -2.70270382     -0.72737773
H       1.43329540     -2.49772136      1.44386650
H      -2.15105945     -2.46313841     -0.52785249
H      -1.43889749     -1.60805064      1.69553700
H      -4.44243123     -1.32976739     -0.15294383
H      -3.91040531     -1.72293547     -2.22754016
H      -3.77440884      0.67362044      1.02448246
H      -4.75712987      0.97818505     -1.59831807
