18
Clc1cc(Cl)c2cc(Cl)ccc2c1
Cl      4.10461930     -0.92845460     -0.35330682
C       2.50734565     -0.31173926     -0.18284492
C       2.31080147      1.04933289      0.00399495
C       1.01213052      1.54512944      0.14184572
Cl      0.85096469      3.25562931      0.37175790
C      -0.11578255      0.68607429      0.09513076
C      -1.45520383      1.12475916      0.22792803
C      -2.51921831      0.22452639      0.17226927
Cl     -4.13361563      0.79606681      0.33786335
C      -2.28473810     -1.13086861     -0.01599402
C      -0.97502179     -1.59072364     -0.14983909
C       0.11125929     -0.70137522     -0.09684357
C       1.42214678     -1.18315595     -0.23358131
H       3.16258800      1.72325680      0.04252042
H      -1.67801275      2.17923084      0.37668187
H      -3.11224040     -1.83413921     -0.05969019
H      -0.81033855     -2.65704982     -0.29683102
H       1.60231621     -2.24649962     -0.38106131
