78
CC(C)CCCCCCCOC(=O)CC(C(=O)OCCCCCCCC(C)C)S(=O)(=O)[O-].[Na+]
C      -8.86369544      0.35179114      2.01266886
C      -8.78683233      1.50128406      1.00755830
C     -10.09332163      1.58167130      0.21358879
C      -7.59608706      1.34923687      0.04346488
C      -6.23645895      1.49031121      0.73687867
C      -5.06086488      1.56465867     -0.24570423
C      -4.86254557      0.33233927     -1.13555130
C      -4.44574436     -0.91313083     -0.34992560
C      -4.36228105     -2.17763152     -1.21116079
C      -3.37536996     -2.11094776     -2.37422617
O      -2.08403553     -1.73470142     -1.88752469
C      -1.03734819     -2.19565368     -2.62228920
O      -1.13937465     -2.69415708     -3.73878974
C       0.28678047     -1.85323568     -1.99489625
C       0.28822671     -1.88577670     -0.47151440
C       1.53364819     -1.22608723      0.03717371
O       2.62473859     -1.22879448     -0.52490381
O       1.26700328     -0.48192294      1.15571355
C       2.39843091      0.16311696      1.75753197
C       2.63447809      1.51859413      1.09681824
C       3.76245495      2.32984562      1.73526183
C       5.14469779      1.67001310      1.73174804
C       5.63982400      1.29005764      0.33461061
C       7.08364477      0.78279077      0.37694905
C       7.56129371      0.35168176     -1.01376615
C       8.96956765     -0.27161284     -1.01319550
C       9.29359163     -0.82616752     -2.40286963
C      10.04893558      0.72681548     -0.59292589
S       0.20709388     -3.52399741      0.18059553
O       0.27910795     -3.33458918      1.62709726
O       1.35211917     -4.21158011     -0.40716309
O      -1.08990363     -4.00923986     -0.29004758
Na      0.00000000      0.00000000      0.00000000
H      -7.98868664      0.33680952      2.66926866
H      -9.74811851      0.45492998      2.65162366
H      -8.92653189     -0.61696835      1.50615336
H      -8.67560303      2.43947986      1.56513747
H     -10.24189828      0.69123313     -0.40821063
H     -10.95294328      1.67493979      0.88501840
H     -10.09222945      2.45685408     -0.44482381
H      -7.66924438      2.11237339     -0.74106945
H      -7.65947895      0.37630093     -0.45678663
H      -6.08073203      0.66735528      1.44114811
H      -6.23555536      2.41028211      1.33391933
H      -4.14051922      1.74556926      0.32250332
H      -5.20113383      2.43963474     -0.89250053
H      -5.77124379      0.12915153     -1.71298045
H      -4.08076631      0.57517875     -1.86501075
H      -3.48037088     -0.73193298      0.13881625
H      -5.16849613     -1.11044332      0.44962327
H      -5.35775510     -2.42342927     -1.59957754
H      -4.06436698     -3.00155925     -0.55140632
H      -3.34846799     -3.09347234     -2.85914037
H      -3.69634074     -1.36991800     -3.11226287
H       0.54706305     -0.84918321     -2.35218476
H       1.03566188     -2.54502681     -2.39926832
H      -0.57385404     -1.33693692     -0.07368661
H       2.15716368      0.30066626      2.81666906
H       3.28000637     -0.48536422      1.71169965
H       2.82058141      1.38977115      0.02448846
H       1.70553379      2.10124429      1.15169864
H       3.49097689      2.56191362      2.77259319
H       3.83143763      3.29271154      1.21378791
H       5.13654195      0.78224289      2.37503587
H       5.85442393      2.37186537      2.18690698
H       5.57657654      2.15981934     -0.32986177
H       4.99751494      0.51056193     -0.08883823
H       7.15556949     -0.06449775      1.06858083
H       7.72766552      1.57774792      0.76652890
H       7.53669125      1.21469123     -1.69130265
H       6.85147250     -0.38311489     -1.41487158
H       8.98385290     -1.11091236     -0.30610522
H      10.27708155     -1.30851490     -2.41018422
H       9.29884410     -0.03134867     -3.15722342
H       8.55402384     -1.57565830     -2.70524721
H       9.91359885      1.04810378      0.44413305
H      10.03599591      1.61672794     -1.23083871
H      11.04428474      0.27514018     -0.66589877
