32
CC(=O)N(CCN(C(C)=O)C(C)=O)C(C)=O
C       3.73412021      1.80651032     -0.27707953
C       2.26897298      1.46707605     -0.39623536
O       1.44062969      2.37178541     -0.54340754
N       1.88401832      0.12378388     -0.32050393
C       0.48704347     -0.13596238     -0.69188401
C      -0.48704269      0.13595789      0.47221277
N      -1.88401804     -0.12378528      0.10083246
C      -2.66015009      0.85379219     -0.52618229
C      -2.18675867      2.28476151     -0.42667212
O      -3.68706255      0.60996609     -1.16003099
C      -2.26897563     -1.46707663      0.17656226
C      -3.73412400     -1.80650689      0.05740960
O      -1.44063415     -2.37178813      0.32373105
C       2.66015200     -0.85379134      0.30651239
C       2.18676244     -2.28476148      0.20700485
O       3.68706462     -0.60996298      0.94035987
H       3.91231774      2.77401391     -0.75752591
H       4.01693274      1.88443486      0.77533030
H       4.35276833      1.07042946     -0.79687304
H       0.37606780     -1.15984684     -1.05666497
H       0.22520799      0.50369912     -1.54446732
H      -0.22520839     -0.50370529      1.32479518
H      -0.37606532      1.15984155      0.83699525
H      -1.27246548      2.42523321     -1.00631446
H      -2.03691008      2.56748692      0.61836743
H      -2.95549666      2.94621553     -0.83922178
H      -4.01693888     -1.88443153     -0.99499962
H      -4.35276902     -1.07042383      0.57720377
H      -3.91232327     -2.77400947      0.53785728
H       2.03692094     -2.56749044     -0.83803471
H       2.95549807     -2.94621343      0.61956242
H       1.27246560     -2.42523195      0.78664177
