19
CCC(C)C(C)=O
C      -1.81127244     -1.39866628      0.12218266
C      -1.44317772     -0.00464452     -0.36969232
C      -0.08063424      0.46565357      0.15965067
C       0.15745848      1.93300199     -0.18743585
C       1.06747986     -0.35972798     -0.41483556
C       2.25106897     -0.59447091      0.48848483
O       1.05624517     -0.79015630     -1.56800265
H      -1.83091590     -1.43541909      1.21606684
H      -1.10164603     -2.15107649     -0.23483297
H      -2.80531107     -1.67575230     -0.24313233
H      -1.45593979      0.00269532     -1.46632839
H      -2.22270542      0.69246751     -0.03858077
H      -0.07083454      0.35268355      1.25070915
H      -0.62272879      2.56822571      0.24459134
H       0.16350027      2.08886581     -1.27204087
H       1.12294008      2.27691168      0.19881731
H       2.70634652      0.36126561      0.75795792
H       2.99406615     -1.20662165     -0.03034401
H       1.92606043     -1.12523522      1.38676499
