40
NCCO.O=C(Nc1ccc([N+](=O)[O-])cc1Cl)c1cc(Cl)ccc1O
N       0.91244171      0.84527386     -0.75989243
C       0.17619161     -0.42623745     -0.73858821
C      -0.68717359     -0.51066056      0.52354469
O      -1.50118458      0.65614459      0.62154616
O      -0.57359039     -0.16380999      2.06718498
C      -0.85411969     -0.11571345      0.87275934
N       0.03875820      0.03776347     -0.16915686
C       1.45348241      0.07729924     -0.10057130
C       2.17176393     -0.15406696      1.07704811
C       3.57167454     -0.10561784      1.08174722
C       4.26314397      0.17315593     -0.10270240
N       5.73033503      0.22302428     -0.09655864
O       6.30974561      0.00839493      0.97675075
O       6.29996884      0.47625704     -1.16703627
C       3.56725678      0.40137607     -1.29330408
C       2.17132302      0.35001376     -1.28381336
Cl      1.33891035      0.63220357     -2.77718584
C      -2.29857385     -0.16735979      0.50287488
C      -2.71857238     -0.63562704     -0.75053003
C      -4.07936305     -0.65335548     -1.06409389
Cl     -4.58571078     -1.22307962     -2.60708563
C      -5.03090003     -0.21958971     -0.14307241
C      -4.62230516      0.22322260      1.11394340
C      -3.26649851      0.23726202      1.43752933
O      -2.95557859      0.66338651      2.70126086
H       1.46460129      0.89144406     -1.61720361
H       1.58791717      0.85577972      0.00574086
H      -0.46902293     -0.45486245     -1.62300454
H       0.86995317     -1.27103972     -0.78784946
H      -0.06431165     -0.56784714      1.42213809
H      -1.33843263     -1.38882050      0.49296013
H      -0.95097958      1.37082560      0.23793887
H      -0.33442286      0.23195469     -1.09301872
H       1.67403503     -0.38202232      2.01553956
H       4.09981115     -0.28910739      2.01656148
H       4.09431105      0.61625313     -2.22047014
H      -2.00980588     -1.01415016     -1.48082196
H      -6.08926485     -0.23431051     -0.39099144
H      -5.35761806      0.54946934      1.84554441
H      -2.00819582      0.45677366      2.86834677
