19
O=C(O)[C@H](O)c1ccccc1Cl
O       2.39534518      1.15802691     -0.11094581
C       2.23477739      0.16037389      0.57099884
O       3.31632960     -0.53473586      1.01297075
C       0.92413645     -0.46169197      1.08073486
O       1.05206991     -1.88827125      1.16777006
C      -0.26531312     -0.09547120      0.21628281
C      -0.68154112     -0.95391896     -0.81977579
C      -1.75678727     -0.62085491     -1.64651517
C      -2.43293205      0.58046577     -1.45986784
C      -2.03230821      1.44947822     -0.44670541
C      -0.95571157      1.11778386      0.38362774
Cl     -0.52271440      2.25655271      1.61133598
H       4.07288095     -0.03966310      0.62926195
H       0.77003084     -0.11793225      2.10864190
H       1.94298106     -2.03988446      1.53901456
H      -0.16709389     -1.89937940     -0.98667850
H      -2.06332269     -1.30184510     -2.43687938
H      -3.26882571      0.84193726     -2.10347543
H      -2.56200136      2.38902983     -0.30979612
