30
Cc1cc(O)c(C(C)C)cc1C(=O)CCl
C       2.86310556     -2.07701184     -0.59874487
C       1.55604072     -1.42023446     -0.24759357
C       0.51072036     -2.21314002      0.25166405
C      -0.71694630     -1.64178771      0.59589509
O      -1.71838535     -2.43817777      1.07549048
C      -0.94311590     -0.26733234      0.46528655
C      -2.27420551      0.35963534      0.85446092
C      -2.11740716      1.29350792      2.05783907
C      -2.92167974      1.09390689     -0.32402230
C       0.11064732      0.52818192     -0.01884710
C       1.34687278     -0.03520562     -0.37820497
C       2.42700234      0.86099418     -0.88132353
O       3.57734955      0.71777468     -0.47240326
C       2.05848653      1.90550472     -1.90901469
Cl      2.03080562      3.50357739     -1.14650678
H       3.22066265     -1.73563814     -1.57551542
H       2.75536996     -3.16518032     -0.66610249
H       3.61401496     -1.86129562      0.16743781
H       0.66395396     -3.28319750      0.36900554
H      -1.39322205     -3.34994513      1.15219014
H      -2.97733819     -0.42716859      1.15250407
H      -1.47995290      2.15449143      1.82902855
H      -3.09252808      1.67779890      2.37628061
H      -1.67180260      0.76466265      2.90776851
H      -3.91750684      1.45800017     -0.04855733
H      -2.33180146      1.95870172     -0.64622037
H      -3.03538135      0.42642741     -1.18548278
H      -0.03535579      1.60397766     -0.08752269
H       2.80787364      1.90103290     -2.70616953
H       1.08372323      1.70713918     -2.36261969
