16
O=[N+]([O-])c1cccc(N=C=S)c1
O      -2.28181921      1.79149582     -1.59706950
N      -2.37133988      1.17862729     -0.52408937
O      -3.36468000      1.19717489      0.21620244
C      -1.21815473      0.37695785     -0.09858813
C      -1.25195807     -0.28611365      1.13522508
C      -0.15853859     -1.05670520      1.52861179
C       0.96020403     -1.15572842      0.69754059
C       1.00948539     -0.47514257     -0.52859113
N       2.12320298     -0.60757866     -1.37408127
C       2.96222502      0.17890161     -1.13152732
S       4.25543587      1.37650993     -0.76649082
C      -0.09668201      0.28078935     -0.93377820
H      -2.11823321     -0.21930443      1.79107039
H      -0.17820256     -1.58673676      2.47868204
H       1.80077071     -1.77443619      1.00666026
H      -0.07171573      0.78128915     -1.89977686
