12
Clc1cccc(Cl)c1
Cl     -2.51005747     -1.79250935     -0.00693933
C      -1.12243249     -0.77459889     -0.00148831
C      -1.28186025      0.60890753      0.08780504
C      -0.15934067      1.43821575      0.09256871
C       1.11692493      0.87980582      0.00801399
C       1.26420787     -0.50507205     -0.08087666
Cl      2.84030130     -1.18828534     -0.18491325
C       0.14835886     -1.33909382     -0.08619007
H      -2.27552015      1.04519281      0.15372826
H      -0.27883565      2.51678216      0.16198944
H       1.99054941      1.52696611      0.01182655
H       0.26770430     -2.41631074     -0.15552436
