45
OC[C@H]1O[C@](O)(CO)[C@@H](O)[C@@H]1O[C@@H]1O[C@H](CO)[C@H](O)[C@H](O)[C@H]1O
O       3.68712259     -0.20645908      3.43292629
C       2.51733926     -0.57765486      2.70376492
C       2.43818099      0.23826429      1.41540292
O       3.60519418     -0.05757929      0.60516948
C       3.12360762     -0.62003642     -0.62526129
O       3.01306515     -2.03028182     -0.42343305
C       4.08508346     -0.34814955     -1.79132778
O       5.27005078     -1.14444366     -1.62471447
C       1.74897667      0.02710784     -0.82227765
O       0.94902183     -0.59428377     -1.82077279
C       1.18770553     -0.09427959      0.58983867
O       0.15633272      0.86438442      0.84620967
C      -1.16914979      0.34274920      0.67682205
O      -1.40227025      0.03961970     -0.70162290
C      -2.72053577     -0.51194891     -0.89542397
C      -2.83385353     -1.02373756     -2.33498251
O      -4.06543026     -1.70793512     -2.51511812
C      -3.75304644      0.58045035     -0.58248809
O      -3.54901155      1.73726980     -1.42154808
C      -3.60080537      1.03118714      0.87784364
O      -4.47553008      2.14638623      1.11010857
C      -2.14762179      1.42157646      1.19155847
O      -1.97326786      1.58740534      2.60748821
H       4.42215270     -0.25715015      2.79047302
H       2.59036976     -1.64982327      2.49489362
H       1.64594936     -0.39828811      3.34036618
H       2.49125344      1.30646411      1.65835647
H       3.91007274     -2.35776426     -0.63958084
H       4.38107022      0.70500502     -1.82205441
H       3.63627981     -0.63995708     -2.74575788
H       5.88928152     -0.87363565     -2.32539820
H       1.84588198      1.08705641     -1.09085425
H       0.02609694     -0.33874171     -1.62112985
H       0.82861606     -1.11181676      0.79237317
H      -1.26273024     -0.56475874      1.28843261
H      -2.86389686     -1.36291216     -0.21592387
H      -2.76366245     -0.20455252     -3.05848448
H      -2.01415583     -1.71787667     -2.55042691
H      -4.10654005     -1.98401782     -3.44824862
H      -4.77770771      0.23801065     -0.76083391
H      -2.59357505      1.80538707     -1.60811274
H      -3.92056601      0.23259811      1.55719973
H      -4.46892452      2.67285672      0.28605025
H      -1.92052978      2.39322269      0.73515008
H      -1.06589412      1.92108299      2.73448184
