26
N#CN=C1NCCN1Cc1ccc(Cl)nc1
N      -3.00537623      2.00072914     -3.44036601
C      -2.23476836      1.32565533     -2.89713893
N      -1.35438976      0.56326952     -2.24370133
C      -1.68289214      0.15373596     -1.06846130
N      -2.82750334      0.39460332     -0.34092563
C      -2.70196888      0.00651087      1.05332437
C      -1.51514871     -0.96558910      1.01498418
N      -0.89037988     -0.63152341     -0.25844096
C       0.35412134     -1.24916144     -0.65593856
C       1.52124206     -0.55553682     -0.00636114
C       1.87541381      0.75448473     -0.34887240
C       2.95700552      1.36513822      0.27950409
C       3.64549752      0.63654988      1.23283457
Cl      4.98667442      1.31395294      2.05915750
N       3.34094975     -0.62643302      1.59521172
C       2.28791996     -1.19236345      0.96513531
H      -3.42021898      1.17986341     -0.58284070
H      -2.46679929      0.88480614      1.66351864
H      -3.61230545     -0.46510978      1.43281714
H      -1.86368552     -2.00399801      1.00219131
H      -0.84754462     -0.81844922      1.86922298
H       0.48903515     -1.22662707     -1.74437046
H       0.34084168     -2.31182262     -0.38335855
H       1.30623032      1.29837120     -1.10038951
H       3.24673915      2.37901386      0.02945983
H       2.07131049     -2.21007059      1.28048489
