39
NC1CN(c2c(F)cc3c(=O)c(C(=O)O)cn(C4CC4)c3c2F)C1
N      -5.47428436     -0.18621483     -0.62023376
C      -4.79415127      0.16568880      0.64087085
C      -3.93011912      1.42657031      0.43698620
N      -2.84112806      0.54691129      0.08516700
C      -1.46353330      0.87143289      0.03070941
C      -1.03352583      2.18926192     -0.17824077
F      -1.92465975      3.18210541     -0.32040089
C       0.31436566      2.52188936     -0.23476514
C       1.27626096      1.51880794     -0.09678046
C       2.70987771      1.89489487     -0.12474692
O       3.06457420      3.05637774     -0.31501348
C       3.71897927      0.84291542      0.10751897
C       5.17147050      1.10016472      0.18427964
O       5.99736837      0.22477354      0.39869882
O       5.52327553      2.39046573     -0.00185741
C       3.26550235     -0.41086983      0.24850214
N       1.94231174     -0.81156023      0.18281443
C       1.64257912     -2.24957812      0.32900208
C       2.44834886     -3.32886702     -0.35709891
C       1.05312692     -3.04524130     -0.81126149
C       0.91169093      0.17082279      0.08242458
C      -0.46684592     -0.11973616      0.15427817
F      -0.86226082     -1.38568186      0.37038981
C      -3.44817352     -0.57967998      0.74738635
H      -4.85759095     -0.09269310     -1.43065641
H      -5.81178237     -1.14713214     -0.64555639
H      -5.43305176      0.14986422      1.52653751
H      -4.22259961      2.10703550     -0.36733679
H      -3.72865162      1.98975232      1.35527950
H       0.59707252      3.56098683     -0.38284332
H       4.76327460      2.99848452     -0.17411183
H       3.96428846     -1.22703071      0.42576476
H       1.28554768     -2.48555857      1.32982486
H       3.25208748     -3.05153836     -1.02871968
H       2.62873821     -4.24694531      0.19025169
H       0.92066877     -2.55263719     -1.76723651
H       0.27794313     -3.76358983     -0.57170812
H      -3.35543223     -1.51803159      0.19384969
H      -3.08156248     -0.70661999      1.77229273
