48
C#CC1(O)CCC2C3CCC4=CC(=O)CCC4C3CCC21C
C       5.01638665     -1.67859161     -1.72853401
C       4.32911102     -0.98154868     -1.03209082
C       3.49853259     -0.12609502     -0.16992266
O       4.15500424      0.01384219      1.09316744
C       3.31550242      1.28196928     -0.75021990
C       1.96272376      1.77875857     -0.22277982
C       1.35744051      0.63024312      0.61110377
C      -0.18861755      0.57479763      0.64297231
C      -0.79552744      1.91180915      1.13950880
C      -2.10298877      2.30197069      0.45118223
C      -2.96430665      1.08856615      0.26461504
C      -4.14425166      0.96877380      0.89543729
C      -4.96743578     -0.25388703      0.74955536
O      -6.07128819     -0.30489327      1.28712886
C      -4.43817811     -1.37784973     -0.10640281
C      -2.91399059     -1.37132338     -0.17063591
C      -2.37399619     -0.00042616     -0.61588437
C      -0.81347330      0.10048086     -0.69016195
C      -0.15014702     -1.19069152     -1.19238951
C       1.36735335     -1.06098078     -1.29478583
C       2.04146622     -0.63974349      0.03960731
C       1.98117222     -1.80170373      1.05075885
H       5.62425468     -2.30205651     -2.34316627
H       5.08601647      0.22375001      0.90646210
H       3.29248502      1.27610723     -1.84696727
H       4.11779305      1.96412354     -0.44552766
H       1.32259157      2.06387449     -1.06413235
H       2.10220894      2.67369127      0.39379599
H       1.69324177      0.77875310      1.64851077
H      -0.45573068     -0.18208159      1.39532387
H      -0.09761906      2.74754148      1.02809324
H      -0.96921119      1.82368316      2.22075838
H      -1.89540120      2.75105571     -0.52806643
H      -2.60704618      3.07593616      1.04225580
H      -4.55363987      1.73973327      1.53829107
H      -4.86813532     -1.27394218     -1.10869734
H      -4.77618056     -2.32873882      0.31949993
H      -2.50461495     -1.63304336      0.81389819
H      -2.60680069     -2.15548639     -0.87118423
H      -2.74040539      0.17732548     -1.63782748
H      -0.59499451      0.87356930     -1.44186216
H      -0.55104318     -1.44646331     -2.18090893
H      -0.38455707     -2.03164290     -0.53193032
H       1.58973814     -0.34053606     -2.09113465
H       1.77603973     -2.02106890     -1.63432960
H       2.41602098     -1.52432846      2.01701560
H       0.95409904     -2.12012432      1.25182124
H       2.53039873     -2.67310842      0.67793633
