6
O=[Mo](=O)([O-])[O-].[Ca+2]
O       1.68165466     -0.62868830     -0.42326867
Mo      0.07400484      0.57718686     -0.02032446
O      -0.07724105      1.62517809      0.37177839
O      -0.52526272     -1.07974736      1.46724000
O      -1.15315573     -0.49392929     -1.39542525
Ca      0.00000000      0.00000000      0.00000000
