36
Nc1ccc(S(=O)(=O)Nc2ccnn2-c2ccccc2)cc1
N       6.20495492      1.22720885      0.89625849
C       4.94610598      0.61738727      0.87701332
C       4.40671323      0.15774700     -0.32900049
C       3.10311968     -0.34195036     -0.38495536
C       2.31488374     -0.33234674      0.76707356
S       0.66474718     -0.97656089      0.71035037
O       0.51509429     -1.77325566     -0.48751978
O       0.35307698     -1.52202077      2.01528140
N      -0.25206961      0.44793923      0.58036440
C      -0.82194779      0.70968917     -0.75168833
C      -0.10766948      1.37682259     -1.71965111
C      -1.00582639      1.53935258     -2.77851502
N      -2.20814773      1.03415723     -2.51379907
N      -2.09430504      0.46960089     -1.27297046
C      -3.21941016     -0.20242599     -0.70498931
C      -3.13088801     -0.96908439      0.46180872
C      -4.26690930     -1.60109083      0.98140645
C      -5.49756601     -1.47917762      0.34135318
C      -5.59629377     -0.73295039     -0.82836479
C      -4.46487039     -0.10246489     -1.35215660
C       2.82247335      0.16183566      1.96990690
C       4.12793659      0.65857101      2.01101932
H       6.64251552      1.24261857      1.81247677
H       6.83739834      0.89159462      0.17611535
H       5.00322524      0.18013567     -1.23775832
H       2.71215780     -0.72164480     -1.32630285
H      -0.89064570      0.53157645      1.37306043
H       0.91242751      1.72631247     -1.65625136
H      -0.84181198      2.02485491     -3.73234401
H      -2.19969321     -1.14610992      0.98032366
H      -4.18459310     -2.20445291      1.88293023
H      -6.37516167     -1.97585018      0.74687464
H      -6.55161577     -0.64203688     -1.33902052
H      -4.57503760      0.47377959     -2.26981483
H       2.21218942      0.17649565      2.86958415
H       4.50544291      1.07574382      2.94140377
