39
CC(C)(C)c1nc(-c2cccs2)c2c(N)c(C#N)c(N)nc2n1
C       3.83518797      1.09560310     -0.74630346
C       3.13653136     -0.00985907      0.06909273
C       3.57437349      0.08959724      1.53903703
C       3.57815256     -1.37173395     -0.50187293
C       1.61916944      0.14207800      0.00695831
N       0.86537938     -0.94910961      0.12568955
C      -0.47216342     -0.77383261      0.09970870
C      -1.15931324     -2.06047116      0.18771603
C      -1.38351657     -2.84935341      1.29925751
C      -2.08604897     -4.04795517      0.97973090
C      -2.35811862     -4.14292091     -0.36689158
S      -1.76637600     -2.79504112     -1.23865345
C      -1.11648397      0.47664243      0.00213864
C      -2.52350434      0.79909394     -0.01064578
N      -3.51133749     -0.18801744      0.22537166
C      -2.89779000      2.15583666     -0.03382840
C      -4.27171648      2.55393274      0.02048226
N      -5.39507882      2.84375135      0.07514686
C      -1.90325426      3.11630464     -0.12715389
N      -2.16702239      4.48039012     -0.23306310
N      -0.60214016      2.79906494     -0.16995181
C      -0.20828067      1.53261570     -0.08898866
N       1.10575530      1.37169553     -0.08581559
H       4.92386857      0.96838544     -0.73292865
H       3.50998073      1.08197173     -1.79330621
H       3.62117435      2.09373188     -0.34651836
H       3.10858485     -0.69361896      2.14891631
H       3.29186969      1.05467816      1.97619318
H       4.66095875     -0.01461865      1.63653502
H       3.17236277     -2.20805313      0.07940638
H       3.24198694     -1.49539272     -1.53815938
H       4.66988047     -1.46963638     -0.49085595
H      -1.05747942     -2.57678342      2.29621770
H      -2.36719860     -4.80643278      1.70047642
H      -2.86650597     -4.94513031     -0.88474260
H      -3.29105746     -1.12368393     -0.10772181
H      -4.46511915      0.05729960     -0.03733359
H      -1.27326206      4.96952150     -0.25416706
H      -2.77244857      4.83945002      0.49824248
