20
Oc1ccc2c(c1)CCC2
O       3.56305166     -0.50126156      0.60100777
C       2.28462734     -0.15586525      0.26803587
C       2.10478399      1.03026309     -0.45247469
C       0.82370278      1.43788739     -0.83028765
C      -0.25112365      0.64598901     -0.46187244
C      -0.06279616     -0.53949258      0.25943520
C       1.20457843     -0.95998984      0.62865576
C      -1.36863338     -1.23394219      0.48922362
C      -2.36332558     -0.09252898      0.23271626
C      -1.69911969      0.85191121     -0.77956778
H       3.53479956     -1.33589246      1.09625041
H       2.96876561      1.63124308     -0.72252552
H       0.68127476      2.35106130     -1.39858148
H       1.33786559     -1.88501882      1.17676411
H      -1.46270183     -1.62397864      1.50649385
H      -1.49798259     -2.04261149     -0.23737690
H      -3.33681270     -0.45586332     -0.11103025
H      -2.53529108      0.45158858      1.17203817
H      -1.90715660      0.53966490     -1.80807590
H      -2.01850646      1.88683659     -0.62882841
