36
CCCCC(CC)COC(=O)C(C)O
C      -4.13409541      1.43195978      1.42661562
C      -3.65929353     -0.00474707      1.57999363
C      -2.18798754     -0.20780481      1.20500042
C      -1.90865397      0.02855172     -0.28359732
C      -0.45896947     -0.25948224     -0.73082606
C      -0.00131210     -1.71760985     -0.50756164
C      -0.90036406     -2.75206613     -1.16983441
C       0.52835350      0.72059637     -0.07083698
O       1.80946364      0.59139201     -0.70634437
C       2.78510689      1.37279695     -0.17096516
O       2.63011255      2.17081097      0.74765631
C       4.11568528      1.19190448     -0.90638239
C       4.52936339     -0.26801695     -0.98201249
O       5.16703995      1.90919055     -0.25552621
H      -5.15642005      1.53155033      1.80545493
H      -3.49571360      2.11949505      1.99032881
H      -4.13899242      1.74374640      0.37821212
H      -3.79423303     -0.30490940      2.62610030
H      -4.29310425     -0.66551656      0.97721703
H      -1.91682053     -1.23462373      1.47331833
H      -1.56729049      0.45631131      1.81681836
H      -2.13754588      1.07179754     -0.53347867
H      -2.59912517     -0.57783024     -0.88194722
H      -0.41612318     -0.08126845     -1.81482876
H       1.00908390     -1.84362201     -0.91605435
H       0.07358567     -1.93703185      0.56369783
H      -1.02529796     -2.53938927     -2.23614628
H      -0.45821348     -3.74901311     -1.07323601
H      -1.88874762     -2.78482687     -0.70248660
H       0.63201082      0.50264131      0.99854669
H       0.17551043      1.75076702     -0.19955179
H       4.00495139      1.61601293     -1.90969761
H       4.61584726     -0.69966085      0.02162405
H       3.80769695     -0.86582031     -1.54716650
H       5.51106130     -0.36679809     -1.45749548
H       4.74343083      2.65051308      0.22120017
