12
C/C=C\C(=O)O
C      -1.67158545      0.62045059      0.18090617
C      -0.87739369     -0.33281802     -0.65257167
C       0.43020447     -0.62815977     -0.57838650
C       1.40277751     -0.06017791      0.37095650
O       1.22333934      0.76082353      1.24679735
O       2.61500291     -0.59498024      0.14342434
H      -1.09080595      1.13486326      0.94672068
H      -2.12203080      1.38211086     -0.46351666
H      -2.48097498      0.08076503      0.68283754
H      -1.45735460     -0.84709521     -1.41800241
H       0.84470123     -1.35382101     -1.27237857
H       3.18412001     -0.16196111      0.81321323
