24
NC(Cc1cc(Cl)c(O)c(Cl)c1)C(=O)O
N      -2.16189339      1.22554185      0.26670534
C      -1.97320563     -0.25151946      0.43180796
C      -0.93824883     -0.82979555     -0.54725782
C       0.47652779     -0.37983254     -0.26001833
C       1.20033452     -0.94378021      0.80039863
C       2.50407264     -0.51865154      1.06740441
Cl      3.36509997     -1.23092575      2.38250967
C       3.10236053      0.47264169      0.28518627
O       4.37985149      0.89650892      0.54803086
C       2.38816818      1.03674270     -0.77318127
Cl      3.07463031      2.26730455     -1.76947228
C       1.08310709      0.61213369     -1.04519751
C      -3.31798970     -0.94203625      0.16767546
O      -3.56310720     -2.11215397      0.41265549
O      -4.20878086     -0.09196331     -0.40595159
H      -1.23483290      1.66271851      0.25325079
H      -2.58367816      1.58185807      1.13281617
H      -1.69397765     -0.44256185      1.47415793
H      -0.95987107     -1.92768480     -0.51469734
H      -1.20969441     -0.57213463     -1.58023882
H       0.75127816     -1.72137395      1.41614496
H       4.71920717      0.37683395      1.30024338
H       0.53924725      1.05769989     -1.87686771
H      -3.73860532      0.77442998     -0.50052218
