15
C=Cc1ccccn1
C      -2.68796834      0.79820159     -0.74255994
C      -1.88422150     -0.22364055     -0.41639808
C      -0.42475341     -0.11849515     -0.26879449
C       0.32323067     -1.24148757      0.07375858
C       1.70443487     -1.11586484      0.20752406
C       2.29819625      0.12181709     -0.00341920
C       1.48145556      1.18703022     -0.34094543
N       0.14069810      1.09418269     -0.47739272
H      -3.75886976      0.65666632     -0.83626403
H      -2.29564864      1.79528330     -0.92259995
H      -2.31984932     -1.20310802     -0.24544043
H      -0.15121197     -2.20329240      0.23615262
H       2.30966416     -1.97746257      0.47402522
H       3.36979942      0.25430499      0.09241939
H       1.89504391      2.17586489     -0.51661788
