16
CC1CCCO1
C       2.06851108      0.16178860     -0.25345689
C       0.68661277      0.31495593      0.35173261
C      -0.13120960     -0.96472356      0.32688989
C      -1.53828196     -0.42222473      0.34019941
C      -1.41015227      0.80155984     -0.54197265
O      -0.06738636      1.28649787     -0.39275727
H       2.65894882     -0.58215194      0.28944041
H       2.60188638      1.11808524     -0.23111929
H       2.00627042     -0.13641041     -1.30574541
H       0.77225704      0.68988305      1.37876192
H       0.08766095     -1.62571690      1.17004813
H       0.03891016     -1.52339221     -0.60149820
H      -2.28765915     -1.13169808     -0.02015752
H      -1.81150461     -0.12238918      1.35888222
H      -1.55597012      0.54638798     -1.59694049
H      -2.11889354      1.58954848     -0.27230689
