28
CCOC(=O)N1CCN(C)CC1
C       3.93147679      0.55572751     -1.39314838
C       3.45743074     -0.73676516     -0.75551166
O       2.02403075     -0.76682970     -0.70447360
C       1.45219193     -0.18361509      0.38432000
O       2.08920203      0.35684113      1.28103190
N       0.06933949     -0.26393976      0.36149438
C      -0.67274805      0.53101072      1.33619358
C      -2.10683068      0.01781040      1.55994957
N      -2.87893240     -0.23807380      0.32691586
C      -3.26524337      1.00297161     -0.34034279
C      -2.09419686     -1.11881081     -0.56085100
C      -0.65645973     -0.64669245     -0.85030640
H       5.02061390      0.56268738     -1.49201104
H       3.62920428      1.42253345     -0.79708246
H       3.48568569      0.68072307     -2.38542492
H       3.77242315     -1.58621397     -1.37048341
H       3.89698638     -0.88059581      0.23816671
H      -0.68676524      1.56431841      0.96922560
H      -0.13707822      0.53662388      2.29233891
H      -2.65141520      0.71261775      2.21090253
H      -2.05192791     -0.92669547      2.11753069
H      -3.87836548      0.78491549     -1.22189029
H      -2.41184841      1.60807489     -0.66228934
H      -3.88423272      1.61526561      0.32487782
H      -2.04160398     -2.10618992     -0.08290171
H      -2.62813111     -1.27808338     -1.50567590
H      -0.12001416     -1.44621941     -1.37223433
H      -0.66279164      0.22660344     -1.51321893
