15
O=C1NC(=O)C([N+](=O)[O-])C(=O)N1
O       2.98291694      0.03524964      0.83187638
C       1.82216897      0.06183156      0.44270495
N       1.32347055     -0.88859918     -0.39464021
C       0.06723811     -0.91512468     -0.94029722
O      -0.23073738     -1.79454603     -1.74701239
C      -0.87366892      0.17163921     -0.53923304
N      -1.98294545     -0.48346567      0.19427965
O      -1.70076975     -1.07867515      1.24525705
O      -3.11700069     -0.39153603     -0.29308796
C      -0.32409293      1.21749630      0.37255836
O      -0.96535026      2.20884119      0.71750045
N       0.96641182      1.05725198      0.80323753
H       1.96140425     -1.62444347     -0.67159560
H      -1.26751834      0.65375859     -1.43979176
H       1.33847309      1.77032172      1.41824382
