13
NC(=S)SCC(=O)O
N       1.51701954      0.99924096     -0.84942151
C       1.61301007     -0.35231563     -0.82090024
S       3.00735197     -1.12542747     -0.37169700
S       0.14143853     -1.12657072     -1.32355517
C      -0.75628318     -1.11519436      0.25448092
C      -1.29359766      0.25482734      0.60028582
O      -1.17307202      1.29933938     -0.02077219
O      -1.98323882      0.23998966      1.76212117
H       0.62559462      1.44819845     -1.04562399
H       2.29713747      1.57547474     -0.56404287
H      -1.60470942     -1.79934770      0.15882961
H      -0.10331443     -1.46324784      1.06005553
H      -2.28733669      1.16503320      1.88056157
