22
CC(Oc1ccccc1Cl)C(=O)O
C      -2.43056754     -1.01910706      1.30301109
C      -1.42067850     -0.12477038      0.59140829
O      -0.64877074     -0.97243151     -0.27115579
C       0.64443554     -0.53367449     -0.39466573
C       0.97318977      0.20235724     -1.53451345
C       2.28264087      0.64508158     -1.72541314
C       3.26823746      0.33652224     -0.78773278
C       2.94778314     -0.42484977      0.33828053
C       1.63790631     -0.86949443      0.53224910
Cl      1.29529080     -1.83540261      1.92058785
C      -2.16978632      0.95635807     -0.18889835
O      -2.20938135      1.11534046     -1.39860481
O      -2.82825092      1.81891247      0.61794187
H      -3.10358247     -1.49723007      0.58192337
H      -1.92208352     -1.82342402      1.84456107
H      -3.04133477     -0.45391544      2.01392326
H      -0.78739996      0.37572480      1.33613343
H       0.21091720      0.42910387     -2.27653065
H       2.53436987      1.22390021     -2.61099795
H       4.28928393      0.67818972     -0.94019112
H       3.72538186     -0.67564338      1.05514873
H      -3.24760064      2.44845249     -0.00646479
