15
Cc1cc[n+]([O-])cc1
C       2.24630229      0.06183365      0.03474303
C       0.74588984      0.01926876      0.03624455
C       0.07225889     -1.20108122     -0.05315245
C      -1.32251100     -1.22290049     -0.08216233
N      -2.06422782     -0.05666320     -0.03502699
O      -3.33175782     -0.09112117     -0.06310165
C      -1.38965775      1.14830153      0.03906856
C       0.00419809      1.20239887      0.06972891
H       2.61754864      0.12487741     -0.99273865
H       2.61277641      0.92662661      0.59782047
H       2.66262666     -0.83376701      0.50781777
H       0.62051723     -2.13891803     -0.09976589
H      -1.92791499     -2.11379965     -0.14529266
H      -2.04456073      2.00539811      0.06530719
H       0.49851206      2.16954585      0.12051013
