24
CCC(=O)OCc1ccccc1
C       4.41055924      0.62543945      0.58337006
C       2.92560573      0.49734603      0.87410033
C       2.12708907      0.20254506     -0.37283783
O       2.58681928      0.07546357     -1.49849150
O       0.80903419      0.09912903     -0.05095999
C      -0.03594318     -0.18046400     -1.16944956
C      -1.45427276     -0.26688503     -0.66866654
C      -2.25740337      0.88054500     -0.60435072
C      -3.56570280      0.80266773     -0.12389074
C      -4.08055539     -0.41955276      0.30430831
C      -3.28694229     -1.56419520      0.25716784
C      -1.97838409     -1.48851690     -0.22293860
H       4.80802278     -0.29937127      0.15212772
H       4.96236959      0.83865021      1.50400251
H       4.60363262      1.43596849     -0.12725479
H       2.55871317      1.43378083      1.30735417
H       2.76484754     -0.31636982      1.58911937
H       0.25433853     -1.12970278     -1.63674123
H       0.04859682      0.61717498     -1.91798438
H      -1.86600894      1.84299610     -0.92643903
H      -4.18211549      1.69678171     -0.08031624
H      -5.09870078     -0.47902654      0.67971663
H      -3.68594603     -2.51602313      0.59793483
H      -1.36765343     -2.38838072     -0.24520000
