33
O=C(OCC(=O)N1CCOCC1)c1ccccc1
O       1.22341272     -0.78564897      1.27810597
C       1.74386488      0.03684284      0.53984007
O       1.15207878      1.16695504      0.07698414
C      -0.23044349      1.27318867      0.41810552
C      -1.12524409      0.36745635     -0.44078157
O      -0.71140881     -0.12549147     -1.49261739
N      -2.42013643      0.15081774      0.00722574
C      -3.28558041     -0.78023280     -0.71974527
C      -4.24428072     -1.49353599      0.23820353
O      -5.07966780     -0.60303310      0.99395836
C      -4.52962308      0.70812104      1.17103947
C      -2.99849132      0.72781567      1.22287931
C       3.14724370     -0.05966304      0.05608916
C       3.95630402     -1.08197730      0.57106248
C       5.28064370     -1.21261816      0.14827463
C       5.80251836     -0.32556830     -0.79228163
C       5.00264866      0.69109074     -1.31347592
C       3.67720480      0.82546085     -0.89264624
H      -0.52927292      2.30911504      0.22619743
H      -0.36974468      1.07573814      1.48643713
H      -2.68719738     -1.51144048     -1.27240407
H      -3.85010870     -0.18123361     -1.44367513
H      -4.90146714     -2.17085714     -0.31609730
H      -3.67922649     -2.09893253      0.95652455
H      -4.89002444      1.33299073      0.34542462
H      -4.94498993      1.11875183      2.09669258
H      -2.64097584      0.11808739      2.06052252
H      -2.63748254      1.75150792      1.35736720
H       3.55656624     -1.78183157      1.30247469
H       5.90282531     -2.00819618      0.55070857
H       6.83301803     -0.42955229     -1.12338655
H       5.40938880      1.37762895     -2.05204079
H       3.06764822      1.61824397     -1.31897812
