30
OCC(O)C(O)C(O)C(O)C(O)CO
O       4.16425445      2.39023705     -0.27318681
C       2.76102838      2.20153641     -0.46550744
C       2.37196332      0.80254345      0.02033358
O       3.12904410     -0.14138516     -0.76501259
C       0.86218421      0.53702437     -0.14153993
O       0.53526285      0.51679409     -1.53952722
C       0.43342400     -0.80077158      0.49427059
O       1.31422259     -1.85936659      0.04687107
C      -1.00838293     -1.22903067      0.14649265
O      -1.24563218     -2.46092457      0.86441413
C      -2.07688244     -0.19794816      0.52592927
O      -2.01362873      0.02209517      1.94621664
C      -3.49196270     -0.67031311      0.17555346
O      -4.41755334      0.34343235      0.58207250
H       4.57618380      1.58057527     -0.63688940
H       2.23098887      2.97989172      0.09085741
H       2.56119962      2.32732175     -1.53444270
H       2.68256800      0.67884094      1.06415646
H       2.79681591     -1.02967336     -0.49924835
H       0.29672193      1.35522306      0.31665200
H       1.23928755     -0.01931229     -1.96192776
H       0.56639259     -0.74946080      1.58148570
H       0.84226748     -2.68860946      0.28027158
H      -1.07915703     -1.48080747     -0.91777351
H      -1.45199673     -2.18994186      1.78344745
H      -1.89459088      0.76711190      0.04274544
H      -2.87207578      0.43626565      2.17889906
H      -3.75679854     -1.57606648      0.72947107
H      -3.61128602     -0.85781055     -0.89592754
H      -4.44386235      1.01252893     -0.12570921
