40
O=C(C=CC=Cc1ccc2c(c1)OCO2)N1CCCCC1
O      -3.07347554     -1.40715169      1.23498004
C      -2.72996738     -0.33874243      0.73295873
C      -1.29204681      0.02822798      0.67815208
C      -0.36713240     -0.93288887      0.55091680
C       1.05151167     -0.65745098      0.52064239
C       1.97161631     -1.61830923      0.34281658
C       3.41498398     -1.35550616      0.29653624
C       4.05039872     -0.53197301      1.25397599
C       5.43177062     -0.30887250      1.20927164
C       6.14747401     -0.92265809      0.20538047
C       5.53894472     -1.73133133     -0.72444766
C       4.18047456     -1.97026238     -0.70486038
O       6.42081140     -2.23747348     -1.62742607
C       7.65094652     -1.63874779     -1.17058894
O       7.48758769     -0.81352601      0.00223517
N      -3.62855492      0.59720086      0.22368185
C      -3.26832663      1.49180793     -0.88242852
C      -4.18576394      2.70819819     -0.97121944
C      -5.65388529      2.30056134     -0.98125840
C      -5.96490225      1.43206616      0.23195824
C      -5.04093821      0.22237559      0.29105097
H      -1.03091502      1.07221827      0.79060282
H      -0.68056848     -1.97396132      0.47254783
H       1.36145133      0.37702500      0.64419228
H       1.67732853     -2.65451703      0.19849753
H       3.47046049     -0.06526050      2.04561678
H       5.92251248      0.32634217      1.93749214
H       3.72675141     -2.60562667     -1.45986338
H       8.05767504     -1.02321067     -1.97967138
H       8.36694089     -2.43810788     -0.94352873
H      -3.32702079      0.89949396     -1.80430129
H      -2.23608632      1.83648857     -0.79635337
H      -4.00186442      3.36358028     -0.11087135
H      -3.95136880      3.28692368     -1.87135441
H      -6.28771800      3.19355736     -0.97189727
H      -5.87894830      1.74842200     -1.90093304
H      -5.84351663      2.02905778      1.14371776
H      -7.00818314      1.10140141      0.19846742
H      -5.23745106     -0.33391150      1.21297851
H      -5.24100602     -0.45545899     -0.54572513
