46
CCN(CCO)C(=O)c1cc2cccnn2c1-c1cccc(OC)c1
C      -1.97804041     -1.83877894     -1.15558374
C      -2.14426588     -0.74527279     -0.11137070
N      -1.34181832     -0.94959712      1.10311530
C      -1.55311862     -2.18871038      1.86445022
C      -2.82830787     -2.18261827      2.71494968
O      -3.97939581     -2.39808947      1.89864571
C      -0.78592229      0.12057982      1.82095203
O      -0.57899067      0.05138357      3.03251271
C      -0.45809811      1.35126368      1.10551682
C      -0.85604668      2.65906742      1.50446513
C      -0.33170087      3.55111047      0.60072106
C      -0.39623052      4.95812274      0.48088608
C       0.25337154      5.55569226     -0.52305197
C       1.00094413      4.67800367     -1.44841513
N       1.08883332      3.38923565     -1.38561346
N       0.40477473      2.84256404     -0.33236150
C       0.35955451      1.48882840     -0.02094738
C       1.11336982      0.46612325     -0.76282299
C       1.03288167      0.37930974     -2.15736445
C       1.73453561     -0.60968190     -2.84843153
C       2.52391249     -1.52796501     -2.15323284
C       2.61675000     -1.45715677     -0.76362841
O       3.35081821     -2.29077123      0.03578278
C       4.09706802     -3.31175688     -0.61307481
C       1.91266685     -0.46075516     -0.07834487
H      -2.47926903     -1.55018617     -2.08502904
H      -0.92221573     -2.02103798     -1.37553202
H      -2.42354428     -2.78200766     -0.82594083
H      -1.91215677      0.21371237     -0.57784673
H      -3.19425305     -0.67068036      0.19102684
H      -1.54948261     -3.03587819      1.17303518
H      -0.69237929     -2.32262631      2.53100168
H      -2.95487881     -1.23801738      3.25243057
H      -2.78678180     -2.99982327      3.44202193
H      -4.75088294     -2.34412007      2.48864123
H      -1.46405938      2.90310953      2.36661897
H      -0.96382423      5.53595893      1.20310302
H       0.25978589      6.62403334     -0.68477703
H       1.52485954      5.20269611     -2.26465085
H       0.42136874      1.08310440     -2.71716199
H       1.66508550     -0.66292562     -3.93165895
H       3.05301901     -2.28200713     -2.72539940
H       4.84745913     -2.88536308     -1.28702269
H       4.62699397     -3.87969357      0.15769317
H       3.43735856     -4.00642563     -1.14344037
H       2.00025272     -0.41195301      1.00513356
