26
Nc1ccc(-c2ccc(N)cc2)cc1
N       4.93279101      0.00681608      0.84650369
C       3.55809167     -0.01533450      0.58658398
C       2.82477722     -1.18741847      0.77141944
C       1.43193617     -1.19108037      0.62860459
C       0.73115992     -0.01127553      0.33765854
C      -0.73283717     -0.01059208      0.18730126
C      -1.56585384     -0.55465652      1.17611549
C      -2.95825289     -0.55255443      1.02902324
C      -3.55700962      0.02943932     -0.08832571
N      -4.93814880     -0.07665562     -0.28592470
C      -2.73502673      0.51743092     -1.10410519
C      -1.34231331      0.51845831     -0.96011171
C       1.47209503      1.17335756      0.21287382
C       2.86471309      1.17314329      0.35779102
H       5.39271958     -0.88447668      0.69024605
H       5.42122674      0.77609905      0.39941968
H       3.32989108     -2.11533210      1.02534903
H       0.89595086     -2.13039937      0.74774870
H      -1.13519325     -0.98833749      2.07625344
H      -3.56955779     -1.00893311      1.80276004
H      -5.47099575     -0.13592081      0.57600057
H      -5.31438515      0.61668481     -0.92465380
H      -3.16929715      0.90251032     -2.02265301
H      -0.73221673      0.91564254     -1.76870631
H       0.96489751      2.11755051      0.02566109
H       3.40083831      2.11583436      0.29063405
