17
COC(=O)/C=C(\C)N
C       3.12109225     -0.43366502      0.92271265
O       2.02779463      0.42434883      0.59485624
C       0.87106913     -0.23877758      0.33197270
O       0.71293485     -1.44656897      0.36864151
C      -0.16120926      0.77498820      0.01219883
C      -1.39264308      0.51215723     -0.46491829
C      -1.86388328     -0.88540562     -0.79468995
N      -2.30680260      1.52734345     -0.70719095
H       3.99887561      0.19171007      1.10761267
H       2.90305276     -1.00193895      1.83241704
H       3.34491045     -1.10637003      0.08875823
H       0.13891319      1.80069768      0.19741885
H      -1.11032561     -1.44263677     -1.35993309
H      -2.11366874     -1.43078645      0.12092824
H      -2.76179103     -0.86106673     -1.42287665
H      -2.13053668      2.38720499     -0.19321079
H      -3.27778259      1.22876567     -0.63469726
