46
O=C1c2cccc(Sc3ccccc3)c2C(=O)c2c(Sc3ccccc3)cccc21
O       0.17586380     -4.53891878     -0.48872264
C      -0.05406542     -3.36284979     -0.23386475
C       0.73743866     -2.28933889     -0.86376050
C       1.57145371     -2.61809790     -1.94032621
C       2.29569393     -1.62277281     -2.58335956
C       2.18048626     -0.30166414     -2.15440692
C       1.36144438      0.04392957     -1.06179311
S       1.24794935      1.79328023     -0.67953544
C       2.87315625      2.09597058     -0.00921071
C       3.23005727      1.61021513      1.25231106
C       4.50468472      1.85559988      1.76703900
C       5.42630157      2.59377224      1.02619341
C       5.07289846      3.09218240     -0.22683392
C       3.79800850      2.84737082     -0.74194492
C       0.63534554     -0.97047290     -0.40533438
C      -0.19501820     -0.73568331      0.80326717
O       0.09677563      0.15219773      1.59254442
C      -1.29796745     -1.67835613      1.11768927
C      -2.41534695     -1.33285107      1.90389621
S      -2.81928760      0.32085458      2.46692712
C      -3.20389920      1.10998418      0.91339655
C      -4.30040029      0.70222682      0.14584141
C      -4.58090051      1.32903900     -1.07041297
C      -3.77057917      2.36948370     -1.52226980
C      -2.68372675      2.78759040     -0.75667067
C      -2.40477175      2.16270530      0.46021671
C      -3.33935891     -2.33384746      2.25796839
C      -3.17927972     -3.64874454      1.82416677
C      -2.09815795     -3.97791816      1.01580424
C      -1.16725436     -2.99329276      0.65934292
H       1.65078521     -3.64861038     -2.28340084
H       2.94028856     -1.87035264     -3.42360571
H       2.74072411      0.46615389     -2.68639676
H       2.51595704      1.04587006      1.84836760
H       4.77306244      1.47520662      2.74926496
H       6.41703868      2.78702737      1.42955398
H       5.78782632      3.67581512     -0.80086087
H       3.53308604      3.24887913     -1.71671326
H      -4.94747302     -0.10073448      0.48876542
H      -5.43416254      1.00868374     -1.66259603
H      -3.98826461      2.85872408     -2.46821559
H      -2.04913786      3.59920442     -1.10363023
H      -1.54940263      2.49403031      1.04679962
H      -4.20307381     -2.09018586      2.87585588
H      -3.90286936     -4.40982687      2.10724212
H      -1.98192835     -5.00147842      0.66244079
