38
Cc1ccc(N2C(=O)N(c3ccc(C)c(N=C=O)c3)C2=O)cc1N=C=O
C      -6.39680943     -1.35215271      1.33258279
C      -4.96105657     -1.02526033      1.02544496
C      -4.00755760     -2.05209877      1.00542461
C      -2.66522146     -1.77451535      0.73470310
C      -2.24693399     -0.46555850      0.48211462
N      -0.91172660     -0.18860190      0.22787656
C      -0.21346357      0.93787891     -0.04629755
O      -0.48085618      2.10631390     -0.17250690
N       0.91162037      0.18903820     -0.11906555
C       2.24679842      0.46586080     -0.37346607
C       2.66521040      1.77462694     -0.62705950
C       4.00776512      2.05200258     -0.89700728
C       4.96126286      1.02510140     -0.91560989
C       6.39743673      1.35181848     -1.22099769
C       4.55940494     -0.29340774     -0.62698505
N       5.48129394     -1.35709113     -0.65076375
C       5.89076215     -1.60641876      0.42189621
O       6.30494311     -1.85554365      1.49396916
C       3.19976464     -0.55988832     -0.38228714
C       0.21324475     -0.93747454      0.15450606
O       0.48046159     -2.10604148      0.27955706
C      -3.19996465      0.56010238      0.49186616
C      -4.55948614      0.29341367      0.73707911
N      -5.48145456      1.35698195      0.76173948
C      -5.89162026      1.60640510     -0.31064357
O      -6.30623311      1.85577793     -1.38247622
H      -6.78293917     -0.69051585      2.11483769
H      -7.00898228     -1.24748667      0.43138383
H      -6.50380374     -2.37964375      1.69641536
H      -4.30115691     -3.08058324      1.20905556
H      -1.95832518     -2.60249306      0.73449165
H       1.95827390      2.60263623     -0.62806445
H       4.30165660      3.08045967     -1.10045320
H       6.78553757      0.68776946     -2.00022943
H       6.50468368      2.37808758     -1.58827761
H       7.00776095      1.25018102     -0.31821939
H       2.90171672     -1.59119090     -0.20080281
H      -2.90200702      1.59151044      0.31080314
