59
CCCCCCCCCCCC(=O)OCC(COC(C)=O)OC(C)=O
C       7.27907132      3.72994739      0.02601775
C       6.80370021      2.40716497     -0.55936185
C       7.08468515      1.24462933      0.39247144
C       6.71760763     -0.12307073     -0.19307779
C       5.21154399     -0.31543838     -0.39187121
C       4.89961117     -1.73593852     -0.86942015
C       3.41833218     -1.96567542     -1.17769464
C       2.51899076     -1.87488647      0.05790259
C       1.07138385     -2.23962768     -0.28013566
C       0.17151517     -2.13000862      0.95364157
C      -1.27687798     -2.52067207      0.66349102
C      -2.03316690     -1.47891125     -0.12885970
O      -1.60546433     -0.38897541     -0.47403570
O      -3.29222675     -1.93481573     -0.38497978
C      -4.12828992     -1.04362049     -1.13965246
C      -4.77880629      0.03529706     -0.26256390
C      -5.68474697     -0.60885902      0.80034086
O      -6.00665835      0.32710601      1.84704379
C      -7.19034422      0.98672559      1.73621012
C      -7.36154830      1.92751269      2.88934482
O      -8.00181486      0.84930294      0.83028391
O      -5.56451600      0.86062954     -1.15341705
C      -5.66562297      2.18087112     -0.84448166
C      -6.52366109      2.87564435     -1.85657859
O      -5.15220552      2.73168022      0.11977486
H       7.07522223      4.54716084     -0.67145035
H       8.35741578      3.70918101      0.21783265
H       6.76448886      3.94989433      0.96782330
H       5.73027466      2.48026837     -0.76644170
H       7.31121226      2.23535104     -1.51626079
H       8.15485870      1.23452646      0.63563751
H       6.54824866      1.39852347      1.33742195
H       7.23991980     -0.26589672     -1.14721744
H       7.08882165     -0.89804253      0.48948117
H       4.69700803     -0.11469240      0.55469657
H       4.83477228      0.40334296     -1.12933098
H       5.23388095     -2.46151931     -0.11815161
H       5.47386576     -1.93974016     -1.78122230
H       3.08396040     -1.24449920     -1.93365703
H       3.31401964     -2.96303406     -1.62315467
H       2.89400595     -2.55006678      0.83680433
H       2.54501360     -0.85813666      0.46609806
H       1.03372978     -3.26285950     -0.67167182
H       0.70650198     -1.57838460     -1.07371585
H       0.55946317     -2.79752653      1.73215396
H       0.21481341     -1.11168022      1.35630878
H      -1.30816787     -3.47110439      0.12035498
H      -1.80269771     -2.64434589      1.61695012
H      -4.90449544     -1.65541803     -1.61585765
H      -3.56704061     -0.59277119     -1.96856593
H      -3.99940064      0.62935644      0.22880186
H      -5.16342649     -1.43201591      1.30018225
H      -6.59460923     -1.02465866      0.35107353
H      -6.59024362      2.70242526      2.85516047
H      -8.34439607      2.40524154      2.82379144
H      -7.30900474      1.37313606      3.83042263
H      -6.51559291      3.95269916     -1.65822869
H      -6.12203317      2.70906825     -2.86117802
H      -7.55088004      2.51006036     -1.78528329
