42
O=C1CCCCCCCCCCC(=O)OCCO1
O      -3.38048978      2.18466403     -1.33799570
C      -2.66688240      1.77101953     -0.43526123
C      -2.99485433      0.58204623      0.43398256
C      -2.49131821     -0.70424962     -0.21415642
C      -2.51256779     -1.88306300      0.76749474
C      -1.80142626     -3.13456981      0.22975865
C      -0.32462093     -3.26436459      0.64333071
C       0.53358235     -2.08814252      0.18847771
C       2.01694303     -2.23669812      0.53697323
C       2.87180925     -1.10819914     -0.06387186
C       2.45059003      0.28511802      0.40876178
C       3.20264461      1.40415396     -0.30856576
C       2.47658442      2.71336879     -0.10880486
O       2.88447909      3.63735247      0.57951901
O       1.29214651      2.69217134     -0.78032969
C       0.39837649      3.77990305     -0.48911015
C      -1.00669731      3.37258948     -0.92691364
O      -1.45213473      2.28437366     -0.09570147
H      -4.07904514      0.54929112      0.58824234
H      -2.54420795      0.73758472      1.42136111
H      -3.11681701     -0.94226379     -1.08409164
H      -1.48575295     -0.53936985     -0.61045320
H      -3.56266573     -2.13590560      0.96176570
H      -2.07944368     -1.59398631      1.73232132
H      -2.32305280     -4.01695670      0.62180495
H      -1.88919439     -3.18353102     -0.86227730
H      -0.26192054     -3.36208874      1.73413613
H       0.07399335     -4.19409703      0.21962336
H       0.42577063     -1.95479912     -0.89443098
H       0.15534105     -1.18954428      0.68231232
H       2.38931336     -3.19566225      0.15752194
H       2.14028233     -2.25232288      1.62646768
H       3.92255857     -1.27863049      0.19913272
H       2.80589836     -1.16052713     -1.15767682
H       2.60387214      0.37363220      1.49145818
H       1.37891731      0.42389856      0.24055329
H       3.28103999      1.22032181     -1.38611152
H       4.22254225      1.49702713      0.07972802
H       0.72759365      4.66175773     -1.04775523
H       0.40172836      3.99035278      0.58665537
H      -1.69236178      4.21846612     -0.80857086
H      -0.99055338      3.03987925     -1.97125244
