16
N#Cc1cccc([N+](=O)[O-])c1C#N
N      -2.11242172      3.25989714      0.18667227
C      -1.61029330      2.21721923      0.11979738
C      -1.01567812      0.91230022      0.03570023
C      -1.86878064     -0.20200504     -0.06778148
C      -1.34947004     -1.49644456     -0.14264041
C       0.02819395     -1.69040948     -0.12155574
C       0.87247987     -0.57505476     -0.02663623
N       2.30181343     -0.81854339     -0.03119041
O       2.94622400     -0.33917491     -0.96993287
O       2.75164745     -1.51128583      0.88851200
C       0.37698808      0.73298284      0.05991088
C       1.25589952      1.85791842      0.20596629
N       1.96053001      2.76678551      0.34811158
H      -2.95111532     -0.06505909     -0.08585256
H      -2.02141516     -2.35020978     -0.21788750
H       0.43539799     -2.69891653     -0.18119342
