22
O=C(O)C1=CC(O)C(O)C(O)C1
O       3.30390542      0.04953693     -0.98413460
C       2.65758970     -0.25132217      0.00402230
O       3.26062609     -0.64598193      1.13574422
C       1.17971875     -0.23950072      0.08678493
C       0.52302238     -0.56717276      1.21570556
C      -0.97090770     -0.54715137      1.33787631
O      -1.29745303      0.10904275      2.55985802
C      -1.68481349      0.16066971      0.17123169
O      -1.63385431      1.59032128      0.37247520
C      -1.03176662     -0.19359218     -1.16903909
O      -1.70317687      0.54506360     -2.19879238
C       0.46372860      0.15782001     -1.17620030
H       4.21568768     -0.59002970      0.92768979
H       1.06420566     -0.86442490      2.11142573
H      -1.31742641     -1.58431653      1.40882533
H      -1.39206837      1.05327904      2.31297042
H      -2.75033760     -0.09569011      0.16875567
H      -1.94025782      1.96759714     -0.47791193
H      -1.17053892     -1.26221065     -1.37345395
H      -1.28946508      0.30547571     -3.04805081
H       0.91881199     -0.33306316     -2.04609447
H       0.59476994      1.23565003     -1.33968764
