29
Nc1ccc(CC(=O)c2ccccc2)cc1
N       4.61426808      1.16133869      0.61119885
C       3.41743365      0.59691299      0.15563224
C       2.86783503      0.99888812     -1.06262322
C       1.73753648      0.36117762     -1.58441022
C       1.15078425     -0.71466628     -0.90685627
C      -0.05541653     -1.41344144     -1.48528406
C      -1.14787396     -1.70568266     -0.47304097
O      -1.27820966     -2.83465572      0.00397858
C      -2.08399496     -0.61918583     -0.04420558
C      -1.96258279      0.70570560     -0.47984523
C      -2.87080524      1.67615120     -0.04496491
C      -3.90387866      1.33171387      0.82483665
C      -4.03216370      0.01674261      1.26500708
C      -3.12623365     -0.95425593      0.83334709
C       1.75159765     -1.16792442      0.27386273
C       2.88205912     -0.52550047      0.78873054
H       4.75588945      2.12053416      0.31188336
H       4.76876848      1.04088974      1.60730409
H       3.31999662      1.81327504     -1.62236867
H       1.33270379      0.70571862     -2.53322053
H      -0.48855136     -0.85032927     -2.32024708
H       0.27061412     -2.36846852     -1.91723411
H      -1.16916214      1.01866579     -1.14998188
H      -2.76913721      2.70471010     -0.38339996
H      -4.60743587      2.08896983      1.16212882
H      -4.83519015     -0.25555090      1.94546488
H      -3.23845466     -1.97782301      1.18730802
H       1.35704383     -2.03739191      0.79797961
H       3.34256001     -0.91651762      1.69217501
