32
COc1cc(N)c2c(c1N)C(=O)c1ccccc1C2=O
C       4.95561558      0.00601772      0.81627279
O       3.77457324      0.75253314      1.07992063
C       2.57403080      0.16689846      0.75024770
C       2.41561491     -1.17443160      0.39727825
C       1.15273322     -1.69525128      0.08485416
N       1.09309877     -3.00890175     -0.41929868
C       0.03786287     -0.82883508      0.07184354
C       0.18460089      0.51687383      0.43715934
C       1.45178332      1.02096601      0.80499750
N       1.67232590      2.40671007      0.99020728
C      -1.01171005      1.39952381      0.46962992
O      -0.98241815      2.50138475      1.01051847
C      -2.27160156      0.93366902     -0.13439547
C      -3.33590350      1.82798649     -0.31033579
C      -4.53766601      1.38404637     -0.86443395
C      -4.68186036      0.04812019     -1.23643973
C      -3.62436530     -0.84464626     -1.05455020
C      -2.41541701     -0.39757760     -0.50488239
C      -1.30743723     -1.34498895     -0.29607941
O      -1.51811792     -2.54882282     -0.41680175
H       5.81307766      0.65161980      1.02930998
H       5.02341871     -0.86452796      1.47655031
H       5.01448804     -0.28877181     -0.23679896
H       3.27099896     -1.83961061      0.33874279
H       1.74557870     -3.66249573     -0.00037667
H       0.13154409     -3.37421528     -0.43214102
H       0.83290717      2.90044027      1.31054606
H       2.50256414      2.59306446      1.54739959
H      -3.23243361      2.87094115     -0.01562478
H      -5.36220286      2.08020713     -1.00158399
H      -5.61926599     -0.30014958     -1.66454899
H      -3.74641742     -1.88777636     -1.34108327
