41
Nc1ccc(S(=O)(=O)Nc2ccn(Cc3ccccc3)c(=O)n2)cc1
N       3.70952722      2.76340188      1.43925033
C       3.64794396      1.44371909      0.98056214
C       3.63081817      1.17703284     -0.39244006
C       3.44774132     -0.12444951     -0.86610799
C       3.23024985     -1.16083343      0.04425589
S       2.96784961     -2.80857330     -0.56084681
O       4.10703433     -3.14286615     -1.38600724
O       2.56247911     -3.64436316      0.54823597
N       1.67262835     -2.62574985     -1.57977105
C       0.36608774     -2.19046547     -1.34440004
C      -0.12061192     -2.12235980      0.03546710
C      -1.37670853     -1.69310772      0.14925586
N      -2.12001022     -1.35578743     -0.96095177
C      -3.48540256     -0.85894603     -0.78873589
C      -3.52101714      0.58511205     -0.34102515
C      -3.21015122      1.61374161     -1.24276891
C      -3.22778496      2.94683693     -0.83072319
C      -3.55564781      3.26614372      0.48526590
C      -3.86683159      2.25340935      1.39059622
C      -3.84948582      0.91884620      0.98109978
C      -1.59258104     -1.44311321     -2.25288454
O      -2.25277393     -1.12712797     -3.23935558
N      -0.30303933     -1.89383171     -2.39825961
C       3.19496065     -0.90519923      1.41584199
C       3.38180660      0.40130812      1.87457879
H       4.19449976      3.39786333      0.81188277
H       4.02925513      2.85494486      2.39858816
H       3.76468998      1.98566609     -1.10711596
H       3.46639650     -0.31424833     -1.93646547
H       1.93249186     -2.69573198     -2.56164767
H       0.46848945     -2.41045653      0.89004863
H      -1.85343532     -1.59738377      1.12024777
H      -3.99552944     -1.50154852     -0.05921072
H      -4.05676622     -0.95671919     -1.71959610
H      -2.95244509      1.37997389     -2.27487270
H      -2.98484596      3.73546710     -1.53827008
H      -3.56871903      4.30492843      0.80460324
H      -4.12335085      2.50446985      2.41659063
H      -4.09574997      0.14325349      1.70237521
H       3.01634779     -1.70396266      2.13188327
H       3.32159056      0.60070613      2.94182793
