49
CC(=O)OCCN(CCC#N)c1ccc(N=Nc2nc3ccc([N+](=O)[O-])cc3s2)cc1
C       7.13273063     -1.45389026     -3.23290989
C       5.85233872     -1.22203338     -2.49396631
O       4.81062824     -0.84245906     -3.01176399
O       6.02553676     -1.46876259     -1.16931679
C       4.84190153     -1.33802712     -0.36141481
C       4.53673298      0.12896524     -0.04075632
N       3.50510516      0.25355802      1.00810319
C       4.00865751      0.40857480      2.38710937
C       3.71172681      1.80357722      2.93225435
C       4.36979502      1.98053255      4.22844227
N       4.89575026      2.10796278      5.25458420
C       2.16163583      0.02182566      0.72854501
C       1.66821667     -0.00620502     -0.58928395
C       0.31209732     -0.21283431     -0.88620144
C      -0.61549681     -0.40871320      0.13436216
N      -1.96605410     -0.63742317     -0.18139049
N      -2.67206526      0.30933271      0.22788830
C      -4.00562885      0.20124959     -0.02838008
N      -4.64600500     -0.74978304     -0.68654417
C      -6.00180520     -0.49716677     -0.72326434
C      -6.97033911     -1.31265634     -1.34701220
C      -8.32020856     -0.94195483     -1.31512715
C      -8.70498754      0.23467321     -0.66090992
N     -10.12810276      0.60818518     -0.62270068
O     -10.92619165     -0.11135074     -1.23257201
O     -10.44284871      1.62100631      0.01207481
C      -7.76163844      1.06732198     -0.03194485
C      -6.41428689      0.67322024     -0.08269983
S      -5.03467091      1.45868814      0.57643258
C      -0.15144896     -0.41717931      1.44876798
C       1.20621743     -0.19964401      1.73843554
H       7.86363072     -0.69116747     -2.96149850
H       6.94093475     -1.39440433     -4.30761810
H       7.51675499     -2.45110430     -3.00621684
H       5.04009872     -1.88891170      0.56394641
H       3.99532668     -1.84111030     -0.83910038
H       5.46470095      0.61455172      0.29457131
H       4.26874161      0.69036990     -0.94013782
H       3.61589463     -0.37521042      3.04739261
H       5.09759680      0.25509389      2.39519571
H       4.08047027      2.56202563      2.22626540
H       2.63610956      1.95990790      3.04490726
H       2.32619207      0.14375075     -1.44603688
H      -0.01729495     -0.22151472     -1.92286333
H      -6.65413481     -2.22323812     -1.85135031
H      -9.04895527     -1.58247337     -1.80387117
H      -8.04745985      1.98309495      0.47826959
H      -0.84469298     -0.60898419      2.26033222
H       1.48879399     -0.23260174      2.78897228
