38
CCO[Si](CC(C)C)(OCC)OCC
C      -2.24659117     -3.43813084      1.11715150
C      -1.37760285     -2.56283670      0.23168609
O      -1.24536011     -1.29214837      0.85820759
Si     -0.31546280     -0.12257924      0.11326980
C       1.52500976     -0.60459781      0.15540819
C       2.54354184      0.47799693     -0.25580969
C       2.54337404      0.73818531     -1.76524870
C       3.94913608      0.05559609      0.18395668
O      -0.55978066      1.32467152      0.90713062
C      -0.46279326      1.35132892      2.32598603
C      -0.65370680      2.78565774      2.78584950
O      -0.84316169      0.03802990     -1.46097768
C      -2.06797321      0.72169837     -1.70035430
C      -2.37221525      0.63847293     -3.18555530
H      -2.37824853     -4.43005601      0.67589032
H      -3.23154519     -2.98205091      1.26220373
H      -1.79700043     -3.54932226      2.10945858
H      -1.85424069     -2.46092949     -0.75097238
H      -0.39618006     -3.03707294      0.10911833
H       1.66021698     -1.50042838     -0.46261580
H       1.72622130     -0.90720135      1.19072394
H       2.30632272      1.42024432      0.25479592
H       3.31990695      1.46321182     -2.03273549
H       2.73519028     -0.18217820     -2.32731440
H       1.58821169      1.15073562     -2.10238669
H       4.24955605     -0.88339075     -0.29349056
H       3.99150348     -0.08611880      1.26911747
H       4.68657113      0.82142190     -0.07915040
H       0.52199247      0.99676104      2.65458686
H      -1.24111120      0.72255553      2.77541826
H      -0.58929682      2.85768241      3.87516697
H       0.10723082      3.43672818      2.34279057
H      -1.62791388      3.16763415      2.46307559
H      -2.88878823      0.25868671     -1.13839720
H      -1.98050147      1.77580085     -1.40990904
H      -1.56264632      1.08733528     -3.77064731
H      -3.30695887      1.15468075     -3.42160457
H      -2.45490611     -0.40607421     -3.50382302
