7
C=CC#N
C      -0.82954943      0.50890306     -0.32139344
C      -0.07398154     -0.47179083      0.18838691
C       1.29332804     -0.28376279      0.52845370
N       2.40905980     -0.13498328      0.80733058
H      -1.87140363      0.33363470     -0.57102051
H      -0.43211295      1.50435104     -0.50173275
H      -0.49534029     -1.45635190      0.35856945
