20
O=C1NC(=O)C2(CCC2)C(=O)N1
O       3.87708607      0.56628325      0.12586597
C       2.66741707      0.37024164      0.07861631
N       1.79001533      1.20365608      0.68578711
C       0.42313845      1.09775823      0.70841802
O      -0.20168392      1.97004108      1.32409997
C      -0.24679557     -0.10336045     -0.03607823
C      -1.31668993     -0.88205002      0.81036912
C      -2.41083199     -0.01637937      0.16716593
C      -1.43752398      0.29506174     -0.97996912
C       0.82187958     -1.01948066     -0.71053637
O       0.55030418     -2.03645038     -1.36084320
N       2.14646234     -0.68977696     -0.58316306
H       2.18549065      1.99290296      1.17800999
H      -1.40119918     -1.94755372      0.56646276
H      -1.23139812     -0.78434460      1.89680748
H      -2.68575735      0.86121542      0.76272238
H      -3.32347467     -0.54556357     -0.11916575
H      -1.56439676     -0.35775395     -1.85155686
H      -1.44880425      1.33352955     -1.32439140
H       2.80676205     -1.30797629     -1.03418164
