72
CC1CCC2(OC1)OC1CC3C4CC=C5CC(O)CCC5(C)C4CCC3(C)C1C2C
C       7.74523917     -0.02568280      0.54536250
C       6.72166021     -0.84851912     -0.23972198
C       6.09915714      0.01318347     -1.34975012
C       4.66691629     -0.41709732     -1.63873120
C       3.79373643     -0.39432621     -0.37113777
O       4.57312511     -0.50229306      0.82684984
C       5.64840431     -1.42589213      0.69096668
O       2.86342116     -1.48548843     -0.43962516
C       1.79170322     -1.18213682      0.46097783
C       0.45488913     -1.56247558     -0.16942983
C      -0.18000148     -0.23044848     -0.60627461
C      -1.71538273     -0.25750043     -0.79250155
C      -2.13474782     -1.39086419     -1.74775875
C      -3.61756677     -1.54321665     -1.86230051
C      -4.49825355     -1.04367739     -0.97712933
C      -5.98995610     -1.10487848     -1.25242373
C      -6.67659577      0.26028931     -1.06251990
O      -7.49861119      0.23805782      0.10516921
C      -5.67694957      1.40887735     -0.95173379
C      -4.58171058      1.18952428      0.11096548
C      -4.07781864     -0.27801400      0.27910546
C      -4.75112235     -0.92603019      1.51966081
C      -2.51184293     -0.35929803      0.52971546
C      -2.00083440      0.64384217      1.58748813
C      -0.48693082      0.58178270      1.77914702
C       0.31058855      0.77304906      0.46297038
C       0.16826935      2.22629211     -0.01558518
C       1.78527628      0.33799131      0.69821412
C       2.86645715      0.82981273     -0.27692813
C       3.55805623      2.10949262      0.18258748
H       8.49859586      0.40236688     -0.12515785
H       7.26342497      0.79648937      1.08658365
H       8.26630773     -0.65140159      1.27811658
H       7.26177267     -1.68861780     -0.69602420
H       6.70501819     -0.06568677     -2.26042185
H       6.10722172      1.07184762     -1.06708864
H       4.23331819      0.20565217     -2.42907771
H       4.68797377     -1.43420370     -2.05328073
H       6.05499666     -1.62705025      1.68806527
H       5.26875842     -2.38120942      0.30837925
H       1.95876690     -1.74132693      1.38873308
H       0.57808357     -2.24417052     -1.01783109
H      -0.16727898     -2.06619154      0.57813261
H       0.26320401      0.03494775     -1.57762447
H      -1.99087955      0.69297955     -1.27179241
H      -1.73082418     -2.35748177     -1.42794425
H      -1.72199421     -1.18432041     -2.74301590
H      -3.97199578     -2.07128888     -2.74463308
H      -6.15419790     -1.42318175     -2.28962468
H      -6.45201133     -1.86909195     -0.61718819
H      -7.35081267      0.43851113     -1.90838359
H      -8.00341582      1.06804296      0.12295664
H      -5.19326645      1.54962300     -1.92748956
H      -6.19800645      2.34643668     -0.72283841
H      -3.75761443      1.85347357     -0.17463725
H      -4.94512549      1.56665579      1.07557011
H      -4.47120191     -1.98254988      1.61122290
H      -4.45982813     -0.42604180      2.44824794
H      -5.84097784     -0.88774226      1.48540917
H      -2.30702746     -1.36147467      0.93756922
H      -2.27739678      1.67022466      1.33273308
H      -2.47047505      0.43919628      2.55605174
H      -0.18819409      1.34694294      2.50715066
H      -0.24054582     -0.37965542      2.24779108
H       0.56395939      2.92356150      0.73067741
H       0.69556953      2.40237063     -0.95836393
H      -0.87512298      2.50198145     -0.19597444
H       2.08831176      0.55530797      1.73088191
H       2.41409044      1.00186778     -1.26134033
H       2.84971159      2.93799332      0.26240617
H       4.03378778      1.98952807      1.16171080
H       4.32674513      2.41233063     -0.53444222
