28
CCCCCCCC(C)=O
C      -4.53627880      0.82389444      0.53151305
C      -3.10645719      1.05182275      0.06767553
C      -2.28905670     -0.23883859      0.11742046
C      -0.85079011     -0.00528935     -0.35066072
C      -0.03391797     -1.29813607     -0.29619639
C       1.38183495     -1.14651601     -0.85871401
C       2.26462178     -0.20953536     -0.03624697
C       3.69946331     -0.17804629     -0.53466215
C       4.65810749      0.67198244      0.25840800
O       4.07486068     -0.79574535     -1.52987310
H      -4.56058299      0.45981110      1.56359253
H      -5.04266523      0.09035431     -0.10396007
H      -5.10257920      1.75947750      0.48793632
H      -2.63949398      1.81330967      0.70311587
H      -3.11873159      1.44572479     -0.95525545
H      -2.28270957     -0.63074164      1.14185817
H      -2.76344513     -0.99814302     -0.51619679
H      -0.38777341      0.75865102      0.28385154
H      -0.85722401      0.38280619     -1.37632340
H       0.01819706     -1.66033042      0.73778275
H      -0.55056336     -2.07301090     -0.87615629
H       1.33175348     -0.79434142     -1.89659616
H       1.84500050     -2.14089917     -0.89311529
H       1.88110360      0.81485392     -0.07944634
H       2.27990909     -0.53598363      1.00944666
H       4.32179358      1.71160738      0.24622441
H       5.65527958      0.61744831     -0.18714122
H       4.71034414      0.30381339      1.28594167
