53
COc1ccc(OC)c(-c2cccc3c(N)c(C(=O)NC4CC(C)C4)nnc23)c1
C      -5.94977875      2.71443821      2.91724458
O      -5.22213283      1.51566581      2.68172157
C      -4.77232813      1.30444939      1.40726208
C      -4.99773046      2.13436487      0.31058234
C      -4.47970558      1.79557805     -0.94264229
C      -3.72229939      0.63114292     -1.10137904
O      -3.24810986      0.26133656     -2.33620722
C      -2.42016644      1.26630639     -2.92033440
C      -3.49975286     -0.23081857     -0.01380084
C      -2.73182382     -1.48404880     -0.15310456
C      -3.43003871     -2.70500113     -0.11732470
C      -2.75471763     -3.90902579     -0.23920894
C      -1.37436422     -3.90251312     -0.41139608
C      -0.63776757     -2.69518723     -0.46810786
C       0.76923251     -2.66575140     -0.66230199
N       1.51390378     -3.87405828     -0.73075943
C       1.39401016     -1.41505918     -0.59733603
C       2.87310269     -1.24174823     -0.76365741
O       3.60265541     -2.17924612     -1.07635626
N       3.34008881      0.04542619     -0.55679146
C       4.75653763      0.40320859     -0.68175769
C       5.62938371      0.02015477      0.53752754
C       6.36749616      1.36919234      0.34185499
C       6.79950137      2.09537645      1.59873713
C       5.07496556      1.87989805     -0.34512424
N       0.70926180     -0.26198339     -0.43445285
N      -0.65022399     -0.30506506     -0.30700036
C      -1.33138691     -1.46998975     -0.31558499
C      -4.03164893      0.12980280      1.23750673
H      -6.88075672      2.72989166      2.34095469
H      -6.21511451      2.74134177      3.97849848
H      -5.33766295      3.59718121      2.70445277
H      -5.57920304      3.04642205      0.39193712
H      -4.68996634      2.43716277     -1.79308512
H      -3.03275142      2.02582325     -3.41611577
H      -1.75243051      1.73078136     -2.18581591
H      -1.79979597      0.78542771     -3.68259155
H      -4.51185636     -2.70978259      0.00526716
H      -3.29900181     -4.84918071     -0.20137464
H      -0.87193274     -4.86391605     -0.48841311
H       1.08304185     -4.59514262     -1.29921413
H       2.48871649     -3.70900343     -1.01761365
H       2.63594577      0.74215735     -0.32390934
H       5.18035962      0.08507933     -1.64285909
H       6.24687509     -0.87352837      0.41125177
H       5.07940916     -0.06242656      1.48301837
H       7.20360921      1.28213540     -0.36667245
H       5.97569668      2.19265977      2.31348625
H       7.15838898      3.10116630      1.35757655
H       7.61432920      1.55715099      2.09369710
H       4.35995226      2.35785353      0.33576882
H       5.23093887      2.53538588     -1.20653322
H      -3.86295429     -0.51148536      2.10088401
