24
CC(=O)CC(=O)C(C)(C)C
C       3.27533330     -0.34187397     -0.07872002
C       2.22320554      0.46529489     -0.79242699
O       2.24316488      0.60466144     -2.01626169
C       1.12276463      1.06956513      0.03552447
C       0.17210112      0.03075634      0.57394989
O       0.51881897     -0.65381451      1.54111145
C      -1.20183697     -0.15201032     -0.10003691
C      -1.04123879     -0.35287821     -1.61204936
C      -1.89619193     -1.39546654      0.48460996
C      -2.07156957      1.07846856      0.18737081
H       3.63337748      0.20683490      0.79601290
H       2.86164318     -1.30642696      0.22338631
H       4.12283140     -0.51052081     -0.74914229
H       0.59166387      1.81539633     -0.56167627
H       1.56364956      1.61657712      0.87608935
H      -0.64878310      0.54339493     -2.10362324
H      -0.35074201     -1.17581949     -1.82911347
H      -2.00204748     -0.58586687     -2.08494412
H      -2.87671142     -1.55846383      0.02312899
H      -2.05091833     -1.29542067      1.56527379
H      -1.29518975     -2.29769857      0.32160167
H      -3.08549400      0.94787843     -0.20724593
H      -1.65784358      1.98534131     -0.26589043
H      -2.14998701      1.26209139      1.26516463
