44
C[C@]12CC[C@@H]3C4=C(CC[C@H]3[C@@H]1CCC2=O)CC(=O)CC4
C      -2.52802754      0.96429736      1.71325179
C      -2.39696657     -0.37081514      0.95582506
C      -1.47607438     -1.33316032      1.70169916
C      -0.00292903     -0.88338481      1.61032696
C       0.47116452     -0.62928812      0.15382520
C       1.91926701     -0.16028924      0.02133488
C       2.29721231      0.71998505     -0.93402392
C       1.34307758      1.26328373     -1.97624228
C      -0.01984114      0.56944198     -2.00728274
C      -0.51240989      0.33354539     -0.58172467
C      -1.90953658     -0.27799050     -0.50713732
C      -3.07395722      0.36685906     -1.24847205
C      -4.28881243     -0.39189830     -0.69121257
C      -3.81129408     -0.84724176      0.67865634
O      -4.49535104     -1.49236592      1.46161776
C       3.70438655      1.25858912     -1.05886470
C       4.62868652      0.75274549      0.03021122
O       5.60527032      1.40247610      0.40516377
C       4.37085643     -0.64017307      0.53154824
C       2.92362800     -0.75874767      0.98392431
H      -2.93262382      0.79037206      2.71792802
H      -1.57211751      1.48015726      1.83485909
H      -3.21667757      1.65952804      1.22150660
H      -1.77108337     -1.41518241      2.75488886
H      -1.56983724     -2.34409892      1.28376854
H       0.14595381      0.02295688      2.20970961
H       0.60899602     -1.66379917      2.07756762
H       0.43471515     -1.60575267     -0.35381468
H       1.79515879      1.18061414     -2.97199098
H       1.19480656      2.33286585     -1.77972052
H       0.05992609     -0.38508123     -2.54311338
H      -0.72308756      1.19357150     -2.56984326
H      -0.51520243      1.30774245     -0.07572081
H      -1.83118163     -1.29930733     -0.91887603
H      -3.00025221      0.24627980     -2.33374534
H      -3.14660262      1.43895562     -1.03663017
H      -5.16354150      0.25631481     -0.60628500
H      -4.51362567     -1.27383755     -1.29784366
H       4.13294545      0.96287285     -2.02250482
H       3.68143888      2.35241963     -0.99854315
H       5.04648192     -0.86361139      1.36372675
H       4.59158197     -1.34160526     -0.28105442
H       2.71075457     -1.82491626      1.12578021
H       2.80472458     -0.26704848      1.95752647
