46
C=CC(=O)OCCCCCCCCCCOC(=O)C=C
C       8.99895270      0.69064340      1.99185876
C       7.77363557      1.08229502      1.62033516
C       6.80272325      0.11298562      1.07008668
O       7.00884874     -1.07787972      0.90749444
O       5.65926885      0.78409930      0.78494467
C       4.62097033     -0.04133041      0.23765512
C       3.41316885      0.84796301     -0.04066310
C       2.25924332      0.12365294     -0.73661089
C       1.60319703     -0.94857263      0.13720609
C       0.44904365     -1.67739969     -0.55928939
C      -0.76520948     -0.78376869     -0.82702524
C      -1.92818587     -1.59423468     -1.40620423
C      -3.13077281     -0.73396704     -1.80462847
C      -3.81743072     -0.06256259     -0.61648971
C      -5.07277460      0.69010644     -1.04682921
O      -5.65114574      1.29018509      0.11923264
C      -6.77925159      1.99908143     -0.12452049
O      -7.31222189      2.15673005     -1.21271366
C      -7.33058122      2.59294776      1.11268813
C      -6.79984225      2.46072989      2.33562032
H       9.71135639      1.40202149      2.39552513
H       9.31675039     -0.34496510      1.90145764
H       7.45617282      2.11384588      1.70994212
H       4.36728064     -0.82183638      0.96276387
H       4.97294688     -0.50110396     -0.69317405
H       3.73329822      1.68907386     -0.66908735
H       3.06638677      1.29947745      0.89730722
H       2.61775049     -0.32638138     -1.67016351
H       1.51438898      0.87790191     -1.01358298
H       1.24426256     -0.49861706      1.07066178
H       2.34944229     -1.70150432      0.41463396
H       0.80447883     -2.11341855     -1.50085100
H       0.14059848     -2.51449234      0.07953930
H      -0.49879438      0.01202049     -1.53094637
H      -1.07106047     -0.30519111      0.10970668
H      -2.24515329     -2.35648117     -0.68403816
H      -1.58100213     -2.12982420     -2.29861571
H      -2.81494273      0.02688637     -2.52871453
H      -3.85504625     -1.37758088     -2.31931672
H      -3.13771579      0.63995739     -0.12057201
H      -4.08495443     -0.81012114      0.14057931
H      -5.79314185     -0.00345232     -1.49631666
H      -4.81342887      1.47163247     -1.77073519
H      -8.23632693      3.17105059      0.96309308
H      -5.89498537      1.88843681      2.51566467
H      -7.27019738      2.93106582      3.19309187
