27
CN1C(=O)c2cccnc2Oc2ccccc21
C      -1.42769209     -2.65783804      0.36346872
N      -0.62022892     -1.47960922      0.05830714
C       0.76966846     -1.67312357      0.03297393
O       1.28135154     -2.78815559      0.17102838
C       1.70936111     -0.54030517     -0.04000637
C       2.92061604     -0.60888907      0.65968782
C       3.83846262      0.43372805      0.55997255
C       3.51969965      1.50824116     -0.25231407
N       2.36957120      1.60031518     -0.95249091
C       1.48819555      0.57471797     -0.82287635
O       0.36687931      0.68227093     -1.59998127
C      -0.77803262      0.81987720     -0.85892413
C      -1.47187654      2.02541572     -1.02318583
C      -2.69252820      2.22044763     -0.38658508
C      -3.22564394      1.20238045      0.39577292
C      -2.53687755     -0.00810563      0.54093813
C      -1.29191595     -0.22255174     -0.07722592
H      -2.37080124     -2.63057430     -0.19195332
H      -1.61662583     -2.69029734      1.44113152
H      -0.91269874     -3.58053155      0.07897492
H       3.15060248     -1.47686034      1.27395497
H       4.78182883      0.40140905      1.09409477
H       4.20330154      2.34448549     -0.37074705
H      -1.05439251      2.80701017     -1.65366822
H      -3.22827311      3.15823357     -0.50785728
H      -4.18127511      1.34516521      0.89487070
H      -2.99067599     -0.76685621      1.17263933
