46
C[C@]12CC(=O)[C@H]3[C@@H](CCC4=CC(=O)CC[C@@]43C)[C@@H]1CCC2=O
C       2.87014472     -1.29067970     -1.20521705
C       2.52557809     -0.88885516      0.24037206
C       1.59853445     -1.90812007      0.88024460
C       0.22434520     -1.79858937      0.23075265
O      -0.34088706     -2.81361910     -0.17100779
C      -0.42419135     -0.39414833      0.18705557
C       0.59596662      0.65516764     -0.35642304
C       0.01767044      2.06884627     -0.22979821
C      -1.30180390      2.19078703     -0.97964008
C      -2.30150975      1.14915070     -0.53529084
C      -3.54726893      1.53349855     -0.20316005
C      -4.60977128      0.55364527      0.11740221
O      -5.72022445      0.95663811      0.45346495
C      -4.29971611     -0.90659285     -0.06697709
C      -2.84322180     -1.18545290      0.27671048
C      -1.82552209     -0.31638160     -0.52398669
C      -1.76869566     -0.79895834     -1.99102463
C       1.90515470      0.51164931      0.42626303
C       3.05987703      1.47016062      0.15193447
C       4.22686106      0.82660746      0.91460037
C       3.83747989     -0.64048831      0.95792859
O       4.51003225     -1.51177130      1.49125037
H       1.98158002     -1.38965715     -1.83591107
H       3.54363408     -0.57597669     -1.68942545
H       3.38595091     -2.25867301     -1.21720644
H       1.98151023     -2.92653913      0.74798627
H       1.48551836     -1.74423791      1.95808794
H      -0.59622020     -0.15026710      1.24813466
H       0.79431357      0.46671097     -1.41756889
H      -0.13202046      2.32320526      0.82752477
H       0.72145258      2.80369999     -0.63746573
H      -1.69410883      3.20530818     -0.83749289
H      -1.12471823      2.07829366     -2.05633995
H      -3.86577276      2.57056791     -0.20695685
H      -4.94414549     -1.48562217      0.60373503
H      -4.53615024     -1.19055751     -1.09714112
H      -2.66025095     -2.25338420      0.11933144
H      -2.70863958     -1.00461437      1.35249347
H      -1.59249952     -1.87607728     -2.06313720
H      -0.97788460     -0.30141187     -2.56098823
H      -2.71037223     -0.59824623     -2.51566607
H       1.65523172      0.64765723      1.49297099
H       2.86320837      2.48215894      0.51935446
H       3.28098567      1.54204922     -0.91841825
H       4.28499104      1.20715482      1.93837477
H       5.17557447      0.96596450      0.39210688
