24
Nc1cccc2ccc(S(=O)(=O)O)cc12
N      -2.00573011      0.73550908      2.02027520
C      -1.88548075      0.40391319      0.65355884
C      -3.06099791      0.12817257     -0.05873949
C      -3.01418295     -0.28097825     -1.38801771
C      -1.78488605     -0.46333326     -2.01384301
C      -0.58756098     -0.26801390     -1.31233952
C       0.64416279     -0.49939275     -1.95053169
C       1.84805151     -0.34356663     -1.26653548
C       1.82002360      0.04629124      0.06828141
S       3.33302425      0.20435297      0.97208307
O       3.57715132      1.61400884      1.17283627
O       4.31441233     -0.67151739      0.36820202
O       3.01810439     -0.46012008      2.40859401
C       0.60723498      0.28439744      0.72384741
C      -0.62482090      0.14748420      0.04646838
H      -1.24277048      1.30722221      2.36684727
H      -2.90426251      1.14709194      2.25453103
H      -4.03029335      0.24285136      0.41987651
H      -3.93608021     -0.46636075     -1.93278773
H      -1.77074617     -0.78448651     -3.05342757
H       0.67228599     -0.81399356     -2.99250146
H       2.78970598     -0.53372355     -1.77641910
H       3.59341449     -1.24934207      2.49823602
H       0.63024076      0.57353365      1.77150533
