32
CN(C)C(=O)c1cccc(C(=O)N(C)C)c1
C      -4.32314698     -1.21254030     -0.96800149
N      -3.28256494     -0.45308844     -0.29682127
C      -3.57808631     -0.03278483      1.06666337
C      -2.01601993     -0.42325050     -0.87571522
O      -1.70196554     -1.07838937     -1.86733869
C      -0.97807659      0.45570043     -0.29479144
C      -1.21750142      1.82456924     -0.11504720
C      -0.21500537      2.64198002      0.40934396
C       1.03058456      2.09718510      0.72702332
C       1.28046933      0.73833956      0.49806049
C       2.60609194      0.18527496      0.85639526
O       3.02597122      0.42360176      1.98691264
N       3.29809888     -0.58142883     -0.07825438
C       4.51079858     -1.25863489      0.34638496
C       3.02138221     -0.60096297     -1.50923381
C       0.27218184     -0.09201194      0.00161706
H      -4.39249856     -2.20043170     -0.50306588
H      -4.10670603     -1.33455321     -2.03297444
H      -5.27639655     -0.68667734     -0.86077076
H      -3.97106824     -0.89122547      1.62073931
H      -4.33820171      0.75266350      1.03115172
H      -2.69830951      0.33192889      1.59832002
H      -2.17971676      2.25317744     -0.38469169
H      -0.40046705      3.70168537      0.56746921
H       1.81125968      2.72910973      1.14616901
H       4.52903440     -2.26275967     -0.08752301
H       4.56612093     -1.34541991      1.43491999
H       5.37393509     -0.68858272     -0.00979460
H       2.28322979      0.14695675     -1.80307969
H       2.66665329     -1.59912390     -1.78075925
H       3.94797936     -0.38711017     -2.05137372
H       0.45194037     -1.15319661     -0.15120323
