37
CNC(=O)/C(=N\OC)c1ccccc1Oc1ccccc1
C      -1.53493702      3.12263500     -0.45050111
N      -1.72803141      1.73251723     -0.14522428
C      -1.22922150      0.75184562     -0.97417100
O      -0.50508601      0.92350214     -1.94349940
C      -1.64944714     -0.66155673     -0.59015218
N      -2.89726925     -1.04428410     -0.54847172
O      -3.77867641     -0.01473319     -0.90544831
C      -5.09685793     -0.54852641     -0.95369346
C      -0.57265024     -1.63678388     -0.28885735
C      -0.71700011     -2.94446486     -0.77708499
C       0.27048564     -3.89994615     -0.53368589
C       1.39858827     -3.56044843      0.21020710
C       1.54045713     -2.26662724      0.71512822
C       0.56295868     -1.29474762      0.45749621
O       0.63788281     -0.04561712      1.03555695
C       1.84350198      0.61389714      0.96147729
C       2.35410344      1.14581110      2.14575948
C       3.55661955      1.85275628      2.12692550
C       4.23581300      2.04074951      0.92247793
C       3.70989267      1.52972098     -0.26489209
C       2.50826988      0.82081600     -0.24893277
H      -0.50808716      3.29785523     -0.78282957
H      -2.22756363      3.40652284     -1.24721532
H      -1.74265450      3.70864891      0.44749261
H      -2.50946159      1.45290500      0.43769634
H      -5.78449157      0.25410212     -1.23255056
H      -5.38495633     -0.93510985      0.02868775
H      -5.15683456     -1.34207859     -1.70483974
H      -1.59575202     -3.21977803     -1.35688008
H       0.15626978     -4.90963000     -0.92073812
H       2.16369993     -4.30697278      0.40963746
H       2.40992565     -2.02895846      1.32311758
H       1.81869383      1.00634377      3.08046350
H       3.96112595      2.26196248      3.04886239
H       5.17046386      2.59569106      0.90650213
H       4.22916090      1.69182309     -1.20594417
H       2.09106543      0.45015796     -1.18187634
