20
COc1ccccc1C(N)=O
C       2.60748824     -0.17133655     -0.82655859
O       1.33618580      0.18928954     -1.36993799
C       0.32703823     -0.34350311     -0.61259714
C      -0.05596620     -1.66658534     -0.85098445
C      -1.12934066     -2.22060349     -0.15174566
C      -1.83171775     -1.45104703      0.77573205
C      -1.46619458     -0.12202825      1.00053601
C      -0.38901095      0.44004227      0.29901997
C      -0.01317653      1.84953389      0.56094611
N      -1.04620951      2.74830108      0.58719472
O       1.14162302      2.20311550      0.75230673
H       3.36786750      0.44411448     -1.31640477
H       2.66315712      0.01287855      0.25214542
H       2.83122077     -1.22178552     -1.04081369
H       0.47457480     -2.26172239     -1.58942926
H      -1.42052642     -3.25221774     -0.33476656
H      -2.66363459     -1.88681923      1.32405479
H      -2.01029657      0.46462292      1.73671212
H      -0.77905678      3.72377384      0.62241335
H      -1.94402493      2.52197658      0.18217683
