11
C=C1C=CC(=O)O1
C       0.26382648     -1.29376943      1.49849268
C       0.09065998     -0.52171532      0.42466427
C      -0.05562020      0.88995639      0.40639285
C      -0.20626482      1.28605236     -0.85023905
C      -0.15217892      0.06708386     -1.65919396
O      -0.25724013      0.05368258     -2.87454387
O       0.03033087     -1.03309320     -0.86268858
H       0.36471256     -2.36925573      1.39185515
H       0.30930377     -0.88135796      2.50043773
H      -0.04506046      1.52939858      1.27530985
H      -0.34246915      2.27301787     -1.25048707
