33
CCC(C)CCCC(C)(C)O
C       4.64324633     -0.05630851      0.92610233
C       3.36699237     -0.75573831      0.47900505
C       2.15692018      0.18997768      0.32551255
C       2.39237163      1.22944866     -0.77463036
C       0.89154107     -0.65318289      0.05282362
C      -0.40813417      0.16110709      0.06170916
C      -1.63337024     -0.75505599     -0.07419041
C      -2.98987476     -0.02601373      0.01003160
C      -3.15566511      1.03102035     -1.08406209
C      -4.12827623     -1.04830340     -0.07422793
O      -3.07465883      0.62124844      1.28147291
H       4.47546008      0.52283732      1.83948626
H       5.02805252      0.61482621      0.15316515
H       5.42232331     -0.79712255      1.13373969
H       3.12833715     -1.52516791      1.22396286
H       3.55658597     -1.28032317     -0.46551668
H       2.01595182      0.72282260      1.27495850
H       1.55242653      1.92576129     -0.85382407
H       3.27823298      1.83713373     -0.56772108
H       2.52955924      0.74905229     -1.74914118
H       0.81685798     -1.43371373      0.82104846
H       0.99101784     -1.16954464     -0.91056061
H      -0.47127324      0.73490055      0.99324399
H      -0.39754043      0.87478262     -0.76728518
H      -1.58626505     -1.49926783      0.73221296
H      -1.56769743     -1.30493907     -1.02174113
H      -2.45129398      1.85891336     -0.95175564
H      -4.15476566      1.48049266     -1.04138143
H      -3.01546524      0.60278934     -2.08171541
H      -5.10344958     -0.55966257      0.03375518
H      -4.11557614     -1.58800247     -1.02677040
H      -4.05826693     -1.77786618      0.74070446
H      -3.93430397      1.07309876      1.33231036
