57
COC(=O)c1ccccc1OC1OC(COC2OCC(O)C(O)C2O)C(O)C(O)C1O
C      -5.53246482     -3.19256045      1.46285851
O      -5.45382609     -2.04854379      0.61152809
C      -4.44039491     -1.19636889      0.92048655
O      -3.63779297     -1.35390828      1.82759164
C      -4.47073958     -0.02596180     -0.00098840
C      -5.08566876     -0.11503092     -1.26038688
C      -5.10473665      0.98868330     -2.11739301
C      -4.51414726      2.18853432     -1.72534559
C      -3.89730559      2.28832807     -0.47914196
C      -3.85657148      1.17805215      0.37156286
O      -3.28561691      1.29414345      1.61046671
C      -1.85882591      1.49329216      1.56285842
O      -1.21162121      0.67088860      0.57854410
C       0.19529943      0.92733930      0.50956180
C       0.77313078      0.03763207     -0.60067131
O       2.14751145      0.36418665     -0.84057251
C       2.74130998     -0.54776183     -1.77356948
O       2.97992222     -1.82055437     -1.16080816
C       4.24016124     -1.92083566     -0.49710273
C       5.42086762     -1.75930284     -1.47181465
O       6.46933091     -1.00623560     -0.83577357
C       4.97760159     -1.03001315     -2.75222532
O       6.10992946     -0.51737225     -3.46069567
C       4.02248059      0.09866377     -2.35937494
O       4.66676742      0.94127256     -1.37043683
C       0.89763894      0.64771817      1.85686849
O       2.26608442      1.08730980      1.83035375
C       0.18850164      1.38705684      3.00193410
O       0.46095064      2.79356927      2.88872517
C      -1.31670299      1.13555372      2.96434616
O      -1.55127732     -0.24639741      3.28843972
H      -6.42741987     -3.75785209      1.18623451
H      -5.62493522     -2.89268479      2.51238261
H      -4.65699601     -3.83287111      1.31755050
H      -5.55447539     -1.03999713     -1.58605423
H      -5.59064015      0.91493658     -3.08825669
H      -4.54395187      3.05053276     -2.38769421
H      -3.46325990      3.23563637     -0.17186216
H      -1.67253439      2.55226953      1.33876794
H       0.36055598      1.97382962      0.21966270
H       0.67201771     -1.01762342     -0.31717495
H       0.20046021      0.18415170     -1.52469426
H       2.04818839     -0.73169387     -2.60354787
H       4.27679207     -1.19564618      0.32486838
H       4.28890755     -2.91204958     -0.03507674
H       5.84848158     -2.73316259     -1.73043208
H       6.11097881     -0.09860015     -0.71322013
H       4.46417537     -1.72485672     -3.42650736
H       6.78421304     -0.31132223     -2.78115617
H       3.78237747      0.75223075     -3.20507748
H       3.94884422      1.49803768     -1.00608901
H       0.88464984     -0.42815585      2.06828059
H       2.67069467      0.66546683      1.04582495
H       0.61088749      1.05752863      3.95850033
H       1.43591743      2.84201277      2.79597874
H      -1.83385034      1.73941965      3.71886084
H      -2.35987456     -0.53091410      2.80119321
