40
CC1=CC(=O)N(Cc2cccc(CN3C(=O)C=C(C)C3=O)c2)C1=O
C      -6.49849258      0.13340710      0.35211704
C      -5.15099609      0.53004916     -0.10906339
C      -4.66234212      0.62169946     -1.34847820
C      -3.26525888      1.05692942     -1.24880891
O      -2.54454617      1.23704808     -2.21304887
N      -2.98862828      1.20741375      0.06833581
C      -1.70108874      1.59089543      0.59783108
C      -0.81027190      0.38966807      0.81332299
C      -0.90781056     -0.36649431      1.98918819
C      -0.09875735     -1.48635488      2.17801655
C       0.80876073     -1.86843928      1.19073231
C       0.90941236     -1.13901502     -0.00163897
C       1.90728662     -1.53879352     -1.06341533
N       3.21595528     -0.99140283     -0.79338631
C       4.17791107     -1.61456732     -0.07232663
O       4.16109325     -2.71830721      0.44126608
C       5.32414379     -0.70238119     -0.00315116
C       5.00258283      0.40808888     -0.67158838
C       5.79159171      1.63637028     -0.90541549
C       3.63449320      0.23544301     -1.19001587
O       3.04066200      1.06812542     -1.85086258
C       0.09851005     -0.00782826     -0.17897531
C      -4.07399536      0.90673608      0.82253407
O      -4.19123504      0.93230255      2.03455194
H      -6.43974258     -0.74758954      0.99891260
H      -6.96671612      0.94627915      0.91597284
H      -7.15242793     -0.11135856     -0.49115512
H      -5.15336044      0.42353811     -2.28462463
H      -1.22234116      2.29113248     -0.09708763
H      -1.84155844      2.11898889      1.54855514
H      -1.61834381     -0.08645900      2.76571846
H      -0.17564076     -2.06260383      3.09671263
H       1.44041875     -2.73995468      1.35727523
H       1.97369535     -2.63231603     -1.11153247
H       1.56817797     -1.18864619     -2.04566869
H       6.23755324     -0.93951234      0.51273595
H       5.27878588      2.50828180     -0.48737999
H       6.77930118      1.57074076     -0.43768382
H       5.93742502      1.80151343     -1.97751130
H       0.17579406      0.57053222     -1.10095985
