14
CC1OCCO1
C       1.84929351     -0.29941941      0.67455415
C       0.72005715      0.03682882     -0.28033787
O       0.03923485      1.21803404      0.16423545
C      -1.24994025      0.76123834      0.57248589
C      -1.48316371     -0.44870552     -0.29024299
O      -0.19709985     -1.06330012     -0.33917063
H       2.55866178      0.53052664      0.74880561
H       2.37801950     -1.20188436      0.35268364
H       1.46043972     -0.48927576      1.68125782
H       1.11273711      0.22342112     -1.28560839
H      -1.19409041      0.49397518      1.63330339
H      -1.99988369      1.54407350      0.43545011
H      -2.22729727     -1.13675756      0.11817058
H      -1.76696844     -0.16875490     -1.31061604
