14
NC(=O)NCC(=O)O
N      -1.92983275      1.32745898      0.77403007
C      -0.68834374      0.81898520      0.62575070
O       0.32594804      1.43023955      0.92935559
N      -0.67733209     -0.41424166      0.06215811
C       0.53197326     -1.23382478      0.07240953
C       1.66774584     -0.81796670     -0.86456334
O       2.37748259     -1.63185210     -1.44388253
O       1.91965839      0.50753565     -0.92415831
H      -1.93683261      2.29575820      1.07471299
H      -2.59426859      1.12675082      0.03895728
H      -1.53651247     -0.92360392      0.21699250
H       0.21694633     -2.24152277     -0.21868766
H       0.92584201     -1.26809229      1.09373942
H       1.39752578      1.02437580     -0.26412376
