43
CCOC(=O)CN(C)C(=O)COC(=O)c1ccccc1OC(C)=O
C       4.31293994      1.95867112     -1.07054736
C       3.16329430      1.09446742     -1.55214817
O       2.98320080     -0.01936433     -0.66776803
C       3.70453387     -1.13854536     -0.95007024
O       4.53725036     -1.22567869     -1.84641490
C       3.37739160     -2.29491460     -0.00211383
N       2.38864626     -2.01014733      1.04723742
C       2.85954615     -1.29867938      2.22560541
C       1.04548982     -2.07969799      0.67736943
O       0.69988475     -2.55444041     -0.40796688
C       0.00702852     -1.56495054      1.68436466
O      -1.29952683     -1.47295206      1.11474139
C      -1.47945190     -0.38772712      0.31762132
O      -0.67282239      0.51448731      0.15376109
C      -2.83005693     -0.43453238     -0.29996316
C      -3.47835868     -1.66243190     -0.50694523
C      -4.73524444     -1.70631398     -1.11817806
C      -5.35310430     -0.52829188     -1.53744894
C      -4.71874873      0.69797114     -1.34557800
C      -3.47000805      0.74113268     -0.71799895
O      -2.88197279      2.00512731     -0.59288717
C      -2.87362526      2.48737046      0.71075699
C      -2.14301958      3.79621729      0.73890333
O      -3.38229885      1.95662818      1.68978837
H       4.14426559      2.28205548     -0.03806036
H       5.25418616      1.40000520     -1.07919746
H       4.42543322      2.84316577     -1.70378402
H       2.23365394      1.67263541     -1.53244103
H       3.31546174      0.76389984     -2.58596021
H       3.01374678     -3.12393416     -0.61908092
H       4.30580428     -2.61164069      0.48473786
H       2.92429379     -0.23083844      2.00038608
H       3.84353567     -1.67757558      2.51597555
H       2.17687359     -1.44632614      3.06568905
H      -0.04970216     -2.28790154      2.50468417
H       0.30267140     -0.59691291      2.10240162
H      -3.00542672     -2.59634867     -0.21015409
H      -5.22741730     -2.66356096     -1.27475094
H      -6.32742715     -0.56721201     -2.01861978
H      -5.19630161      1.61467988     -1.67994883
H      -2.11120121      4.17060490      1.76608381
H      -2.66634517      4.52614062      0.11639774
H      -1.11707246      3.65565904      0.38929885
