51
O=C(c1ccc(F)cc1)C1CCN(CCn2c(=O)[nH]c3ccccc3c2=O)CC1
O       2.99112843     -0.61626640      1.46466321
C       3.63539548     -0.68295088      0.41814570
C       4.97005536      0.00106301      0.36126162
C       5.78983986     -0.01195386     -0.77661207
C       7.02452234      0.64592513     -0.76246718
C       7.43935148      1.31350383      0.38370354
F       8.62211323      1.94089121      0.39017681
C       6.64337579      1.33816443      1.52055983
C       5.40993137      0.68258995      1.50968315
C       3.10415649     -1.42715381     -0.81008374
C       2.50970864     -0.44860569     -1.82839950
C       1.12208902      0.04885837     -1.41816708
N       0.22121539     -1.08724494     -1.21251864
C      -1.18145464     -0.66692198     -1.03518099
C      -1.52563966      0.18190887      0.20811586
N      -2.93114815      0.58324364      0.20965752
C      -3.27024656      1.74930090     -0.45706761
O      -2.46294658      2.47002050     -1.04214974
N      -4.59161892      2.09458040     -0.45842914
C      -5.59366708      1.33268101      0.13482323
C      -6.91858759      1.76688338      0.09348761
C      -7.91808413      0.99012129      0.68451946
C      -7.59386614     -0.21495424      1.31097947
C      -6.26744336     -0.64713767      1.34858591
C      -5.26856270      0.13353549      0.75828994
C      -3.85620034     -0.29307463      0.77362160
O      -3.56343016     -1.38261099      1.26040854
C       0.68900831     -1.94246631     -0.11655010
C       2.07858644     -2.50573866     -0.42648143
H       5.49841185     -0.51968675     -1.69061080
H       7.66517030      0.64187592     -1.63940996
H       6.98341842      1.86443523      2.40700813
H       4.79144870      0.70611567      2.40597700
H       3.94983449     -1.96124344     -1.25848351
H       3.16428254      0.41710861     -1.97800270
H       2.43391842     -0.95377132     -2.80052580
H       1.20196772      0.67230980     -0.51965411
H       0.74123240      0.68772281     -2.22428316
H      -1.80986210     -1.56755423     -1.03391024
H      -1.48967842     -0.12198290     -1.93747027
H      -0.90509479      1.08381078      0.24011284
H      -1.32085306     -0.38389303      1.12354020
H      -4.81415620      2.95691351     -0.93855442
H      -7.18743165      2.70112941     -0.39180831
H      -8.95316102      1.32365507      0.65615273
H      -8.37427635     -0.81842037      1.76920012
H      -6.01541167     -1.58708869      1.83512307
H       0.00373433     -2.78949857      0.01131756
H       0.70512609     -1.40064780      0.83503321
H       1.98849963     -3.21135919     -1.26353564
H       2.43529872     -3.08612186      0.43311705
