28
CCS(=O)(=O)c1nnc(N(C)C(=O)NC)s1
C       5.01998019      0.52986477     -1.88618108
C       3.57594463      0.21571869     -1.54860108
S       2.98806760      1.22614350     -0.20416482
O       2.91226339      2.60550797     -0.64584755
O       3.67927132      0.84524064      1.01268043
C       1.32748819      0.70082697      0.00729489
N       0.72111338     -0.23668549     -0.68676899
N      -0.58089192     -0.40012375     -0.26293071
C      -0.91046847      0.41347860      0.72447876
N      -2.14069420      0.49727798      1.38292797
C      -2.36077426      1.38514202      2.52265422
C      -3.22364758     -0.29974098      0.99902839
O      -4.28945514     -0.30385136      1.61863397
N      -3.08251047     -1.06532705     -0.12880506
C      -4.11435156     -1.97724937     -0.55223123
S       0.38156365      1.44287504      1.21206924
H       5.13614602      1.57688209     -2.18400615
H       5.67333725      0.35324332     -1.02573503
H       5.36372140     -0.10052871     -2.71181934
H       3.47786877     -0.83151721     -1.24747740
H       2.93565976      0.40674273     -2.41492736
H      -1.67932420      1.10748110      3.33326274
H      -2.18367488      2.42087427      2.21553492
H      -3.38075359      1.33027143      2.91247116
H      -2.14248278     -1.23723152     -0.46821309
H      -5.09133935     -1.48792792     -0.51411729
H      -3.89791530     -2.29655140     -1.57423124
H      -4.11414185     -2.84325054      0.11502074
