38
CCCCCCCCCC(C(=O)O)C(=O)O
C      -5.29526419      2.07949085     -2.22628704
C      -3.94672840      1.52674365     -1.79008270
C      -3.98019320      1.07405426     -0.32884914
C      -2.61896408      0.60907774      0.19884565
C      -2.09759396     -0.64827989     -0.50356852
C      -0.87747654     -1.26518082      0.19025638
C       0.35673645     -0.35574095      0.18243502
C       1.56611013     -1.06796546      0.79690526
C       2.80255936     -0.15557338      0.81319088
C       4.02131484     -0.81439773      1.48523209
C       4.92389701      0.20750354      2.12622699
O       5.54510743      0.04732057      3.16827615
O       5.04302337      1.36126172      1.44072318
C       4.80778126     -1.66487143      0.52442530
O       5.90288593     -1.41683911      0.04169400
O       4.18000690     -2.82160919      0.20505842
H      -5.57713866      2.94834131     -1.62038641
H      -6.08032456      1.32304488     -2.12378935
H      -5.25959065      2.39334265     -3.27642107
H      -3.18076784      2.29984693     -1.92458317
H      -3.68390620      0.68697351     -2.44321891
H      -4.32270048      1.90755619      0.29792254
H      -4.71428528      0.26691612     -0.20761694
H      -1.89618425      1.42782741      0.09716935
H      -2.72225622      0.40598496      1.27254366
H      -1.84198589     -0.41997784     -1.54670548
H      -2.89347796     -1.40532675     -0.52878939
H      -1.13747751     -1.52623056      1.22526746
H      -0.63624863     -2.20689053     -0.31982122
H       0.15215539      0.55933626      0.75248176
H       0.58844607     -0.05482915     -0.84915410
H       1.32476080     -1.37658369      1.82409975
H       1.77225231     -1.97911956      0.22397367
H       3.05025618      0.13927020     -0.21751437
H       2.53447403      0.76454358      1.34995233
H       3.68406808     -1.45598294      2.31242445
H       5.70400794      1.87594388      1.95206513
H       4.80272105     -3.26898124     -0.40684639
