26
CC1=CCC(=C(C)C)CC1
C      -3.58476807      0.56305632      0.19763717
C      -2.15363223      0.23778744     -0.10989347
C      -1.47683255      0.82442983     -1.11441139
C      -0.02256217      0.57211609     -1.42844528
C       0.68638551     -0.25996906     -0.36811755
C       1.95638621     -0.03063179      0.04969925
C       2.63246588     -0.78268753      1.17061459
C       2.86351495      1.00911943     -0.56561094
C      -0.20924762     -1.36365676      0.16261582
C      -1.49340316     -0.79245578      0.77461784
H      -3.67660546      0.93523497      1.22307471
H      -4.20865909     -0.33047900      0.09398384
H      -3.98544144      1.33014842     -0.47325252
H      -1.97618763      1.54980828     -1.75259260
H       0.44547645      1.55480888     -1.54126473
H       0.04369567      0.05722916     -2.39394156
H       3.20155480     -0.08816194      1.79933776
H       3.32818331     -1.52245893      0.76210217
H       1.93685624     -1.29035793      1.84139332
H       3.87106306      0.59858905     -0.69837725
H       2.53973790      1.33768006     -1.55605000
H       2.93279788      1.88393504      0.08862757
H      -0.46912734     -2.02298340     -0.67746498
H       0.27871215     -2.01101332      0.89467733
H      -1.27397146     -0.33572323      1.74769065
H      -2.18639179     -1.62336431      0.95406008
