28
CCCCC(=O)CCCC
C       4.51608135      0.14491314      0.53311160
C       3.15780472      0.06562175     -0.14625572
C       2.11062472     -0.56954280      0.77170328
C       0.74308493     -0.68838642      0.10042641
C       0.03869352      0.64692992     -0.08247452
O       0.33211132      1.64327344      0.57860849
C      -1.08309759      0.69988210     -1.10288551
C      -2.30207650     -0.11974212     -0.69125890
C      -3.00384183      0.45260422      0.54207415
C      -4.24616770     -0.34991836      0.89617246
H       5.25041862      0.59866681     -0.13978465
H       4.46525230      0.75416173      1.44116670
H       4.87681365     -0.85165743      0.80703821
H       2.84741817      1.07481725     -0.43846737
H       3.25116789     -0.52314405     -1.06625462
H       2.02958718      0.00857553      1.70005408
H       2.44741466     -1.57526564      1.05198249
H       0.09281729     -1.31559701      0.72005630
H       0.85004578     -1.16998328     -0.87760891
H      -0.68554405      0.33322347     -2.05604627
H      -1.36162802      1.74831809     -1.26079856
H      -3.00804573     -0.13555613     -1.53069056
H      -2.01428246     -1.16020527     -0.50079380
H      -2.32356143      0.44930059      1.40110274
H      -3.28994521      1.49460305      0.35769415
H      -3.99051897     -1.39120635      1.11687944
H      -4.96788801     -0.33976688      0.07317380
H      -4.73273858      0.07508065      1.77966091
