25
CC1=C(C(=O)O)CCC1(C)C
C       0.55156212      2.07608917     -0.12369949
C       0.34653461      0.59790932     -0.03872340
C       1.25746038     -0.36250943      0.20914784
C       2.70182800     -0.17940422      0.41321693
O       3.36139686      0.81836309      0.19348523
O       3.27616086     -1.29529739      0.89380619
C       0.63532440     -1.72253304      0.25664699
C      -0.71791975     -1.49105264     -0.40965428
C      -1.04384988      0.00305244     -0.19722999
C      -1.80844206      0.55224749     -1.40727012
C      -1.87374544      0.20226341      1.08009329
H       0.42917811      2.41827803     -1.15593975
H       1.53844793      2.39241254      0.21947863
H      -0.17902365      2.59969030      0.50097791
H       4.21821342     -1.04220544      0.98266656
H       1.20986341     -2.47306259     -0.29512277
H       0.51669112     -2.05419306      1.29391426
H      -0.62979146     -1.72216749     -1.48039857
H      -1.48571873     -2.15933876     -0.00401406
H      -2.07166740      1.60708253     -1.26967027
H      -2.73971542     -0.00326092     -1.56593116
H      -1.21496356      0.47749282     -2.32586875
H      -1.35663061     -0.18363665      1.96623323
H      -2.83515764     -0.31874609      1.00628997
H      -2.08603565      1.26252657      1.25756560
