24
COc1ccc(C)cc1S(N)(=O)=O
C      -1.81929973      2.71932536      0.13672639
O      -1.71985583      1.30320601      0.04835309
C      -0.46623310      0.75660522      0.06609956
C       0.70543819      1.48752940     -0.16003470
C       1.95681361      0.85942126     -0.14539255
C       2.06503438     -0.51153332      0.10168347
C       3.40405800     -1.18746903      0.08593006
C       0.89782570     -1.25340883      0.30633893
C      -0.35639592     -0.62223331      0.28830967
S      -1.79568827     -1.60553482      0.58674623
N      -2.66323720     -1.47124056     -0.84599065
O      -1.40922950     -2.99941177      0.64486045
O      -2.59665203     -1.00412997      1.62721170
H      -1.48042257      3.19201781     -0.79058417
H      -2.87556324      2.97160595      0.27114977
H      -1.27144444      3.10637793      1.00248776
H       0.68186531      2.55329336     -0.36502991
H       2.84944284      1.45398638     -0.33134147
H       3.63471685     -1.53708219     -0.92504099
H       3.41715361     -2.04336906      0.76891656
H       4.19244117     -0.50067110      0.41145110
H       0.96734526     -2.32558647      0.48350058
H      -2.79634902     -2.39302453     -1.25885322
H      -3.52176407     -0.94867371     -0.67453253
