62
CN1CCCC1CCNC(=O)c1ccc(Nc2ncc3cc(-c4ccncc4)ccc3n2)cc1
C      -9.07916279      0.76348862      1.51531627
N      -8.98351025      0.71811038      0.06024918
C     -10.23006163      0.22844880     -0.53535387
C      -9.82988998     -0.08958327     -1.96445974
C      -8.33964407     -0.40294379     -1.89865384
C      -7.93988096     -0.19800788     -0.43250163
C      -6.52264042      0.36779709     -0.27759477
C      -5.45959004     -0.59711305     -0.79594101
N      -4.12458757     -0.06231533     -0.60909060
C      -3.04603349     -0.65132609     -1.24110551
O      -3.15355362     -1.57617116     -2.03800191
C      -1.70108554     -0.12954026     -0.87093267
C      -0.59787936     -0.97721897     -0.99135539
C       0.68379009     -0.52652872     -0.64894228
C       0.89760963      0.77878169     -0.19585326
N       2.14769322      1.28172416      0.17578840
C       3.43016328      0.74417813      0.23808324
N       3.67523191     -0.54208109     -0.04026220
C       4.95120762     -0.95938385      0.05450832
C       6.00444659     -0.14197395      0.42139282
C       7.34303264     -0.57981216      0.52097080
C       8.36168173      0.30681831      0.89554324
C       9.75954756     -0.13782585      1.00001934
C      10.11354318     -1.23857643      1.78979487
C      11.44497290     -1.61992523      1.85584480
N      12.43897033     -0.99158610      1.19572498
C      12.08584324      0.06690358      0.43804520
C      10.78325641      0.52463004      0.31188113
C       7.99879971      1.63276243      1.16497131
C       6.66387782      2.05045383      1.06313285
C       5.65068347      1.17779178      0.69204549
N       4.38638990      1.61566242      0.60483734
C      -0.22149557      1.62272630     -0.09327054
C      -1.50749058      1.18159210     -0.43051328
H      -8.16991350      1.18502531      1.95494080
H      -9.24767327     -0.22657009      1.95461012
H      -9.90355480      1.41829169      1.82051220
H     -10.58522815     -0.68348611     -0.03889202
H     -11.02671614      0.97819364     -0.49817690
H      -9.99579609      0.77831043     -2.61415522
H     -10.40570877     -0.92727142     -2.37044928
H      -8.13930671     -1.43121273     -2.22005442
H      -7.79746129      0.26920402     -2.57452313
H      -8.00997102     -1.16421531      0.08809876
H      -6.31640200      0.57838373      0.77898949
H      -6.43548293      1.32796180     -0.80380035
H      -5.60089513     -0.80764159     -1.86139268
H      -5.50802027     -1.55035163     -0.25707783
H      -3.94304331      0.45820749      0.23905103
H      -0.72725247     -1.99651781     -1.34985867
H       1.50895060     -1.22440020     -0.75461904
H       2.19785776      2.25957935      0.41943689
H       5.10231144     -2.00848211     -0.18254221
H       7.58645888     -1.61589329      0.29063368
H       9.37061998     -1.78846459      2.35888361
H      11.75516837     -2.46653215      2.46236581
H      12.90332885      0.55476304     -0.08561589
H      10.57493702      1.37813347     -0.32557971
H       8.75084513      2.35799615      1.47140963
H       6.41249005      3.08579223      1.28234113
H      -0.09960815      2.64798946      0.24872412
H      -2.33516941      1.88158070     -0.36757702
