36
CS(=O)(=O)c1ccc(C(O)C(CO)NC(=O)C(Cl)Cl)cc1
C      -5.76203931     -0.36289228     -0.47896647
S      -4.78969685     -0.88341319      0.91012309
O      -4.88475167     -2.32681579      1.01850098
O      -5.12004598     -0.03228030      2.03775460
C      -3.12888168     -0.49480930      0.41449159
C      -2.39849082     -1.42571213     -0.32585619
C      -1.09218977     -1.12130991     -0.70945631
C      -0.50338300      0.10295796     -0.34660054
C       0.92737267      0.42390280     -0.73676053
O       0.99523505      0.21461233     -2.15099127
C       2.00474801     -0.42105617      0.01632204
C       1.64818886     -0.63593626      1.50344425
O       2.75738428     -1.25538553      2.16783509
N       3.35762098      0.18677301     -0.01363405
C       4.08599594      0.43055313     -1.15917819
O       3.57451177      0.36571331     -2.27784441
C       5.54435668      0.85066447     -0.96059738
Cl      5.58138351      2.51196413     -0.33704744
Cl      6.35073927     -0.26224461      0.16593109
C      -1.25279963      1.02089458      0.40774155
C      -2.56079811      0.72297841      0.79394605
H      -6.81114227     -0.56518603     -0.25260848
H      -5.45743252     -0.92935269     -1.36096908
H      -5.61616220      0.70765476     -0.63522811
H      -2.83232504     -2.38252079     -0.60850853
H      -0.52949366     -1.83929990     -1.30492875
H       1.11952351      1.49102799     -0.56970780
H       1.93546051      0.32422547     -2.41015589
H       2.12154288     -1.39666208     -0.47306278
H       1.45791789      0.31887204      2.00504086
H       0.77970609     -1.29018889      1.62029613
H       2.45867116     -1.47203293      3.06993890
H       3.91132212     -0.04791348      0.81154291
H       6.07261349      0.81537134     -1.91732732
H      -0.82138539      1.97669155      0.70014477
H      -3.12327678      1.44176606      1.38637561
