35
CCOC(=O)c1ccc(NS(=O)(=O)c2ccccc2)nc1
C       5.73650162     -1.28709099     -0.58810813
C       4.45478608     -2.09512490     -0.66382720
O       3.37667786     -1.37028275     -0.05182472
C       2.71468824     -0.50565014     -0.85824424
O       2.94931627     -0.29001661     -2.03571307
C       1.63400179      0.17243260     -0.11028272
C       1.35737122     -0.06004640      1.23988709
C       0.31202617      0.63030425      1.85278813
C      -0.41701369      1.52332044      1.08596889
N      -1.50557910      2.26027335      1.58103010
S      -2.87281190      1.38922024      2.03255762
O      -3.93540053      2.35392501      2.22400403
O      -2.51333714      0.46009004      3.08401510
C      -3.26902693      0.44780346      0.57571567
C      -3.92716389      1.07642716     -0.48597404
C      -4.24678586      0.33934499     -1.62594150
C      -3.91973949     -1.01615916     -1.69652038
C      -3.27826157     -1.64278973     -0.62648878
C      -2.95494390     -0.91366812      0.51757634
N      -0.17717520      1.78596789     -0.20962529
C       0.84483333      1.09928795     -0.78249399
H       5.64265469     -0.34873911     -1.14381499
H       5.96259783     -1.02131819      0.44976495
H       6.57702544     -1.85359988     -0.99872743
H       4.57288824     -3.02727114     -0.10172382
H       4.21393434     -2.36997099     -1.69719268
H       1.94190528     -0.76718439      1.82257767
H       0.08407961      0.47240912      2.90186891
H      -1.74761822      3.02413044      0.95323496
H      -4.19412451      2.12916956     -0.43236869
H      -4.75508175      0.81890871     -2.45915383
H      -4.17272528     -1.58806905     -2.58642354
H      -3.03610670     -2.70131303     -0.68401398
H      -2.46420536     -1.41065896      1.35104457
H       1.01181302      1.32682238     -1.83357098
