36
CCCc1nc(N)c(CC)c(CCC)n1
C      -3.45614650      1.56378179      1.50719110
C      -3.98186850      0.73071117      0.34617722
C      -3.06613471      0.75893518     -0.87905690
C      -1.75607005      0.05826762     -0.64552599
N      -1.75101960     -1.28208296     -0.68116424
C      -0.57918965     -1.88770158     -0.45524385
N      -0.63522053     -3.28219091     -0.49090689
C       0.60091241     -1.20593986     -0.17962325
C       1.88320820     -1.93473319      0.12334094
C       1.99609342     -2.30655897      1.59540771
C       0.48875614      0.18178814     -0.15036171
C       1.65355068      1.09929912      0.13140042
C       2.38929254      1.48357394     -1.15321200
C       3.56147278      2.40814076     -0.86555552
N      -0.67857616      0.81779092     -0.39527646
H      -4.18436096      1.57031190      2.32455984
H      -3.28283288      2.60007030      1.20012577
H      -2.51893238      1.15802182      1.90000970
H      -4.13903460     -0.30082673      0.68334520
H      -4.96334496      1.12411942      0.05556848
H      -3.57366339      0.26663575     -1.71751170
H      -2.88192690      1.79453185     -1.18919513
H      -1.59343867     -3.52551361     -0.73224757
H       0.01856034     -3.66236682     -1.16466241
H       2.75002467     -1.33308638     -0.16978742
H       1.96033228     -2.84000908     -0.49018921
H       1.18135765     -2.97000621      1.90396901
H       1.96467293     -1.41863898      2.23546723
H       2.94195988     -2.82501898      1.78193485
H       2.33851981      0.64892745      0.85767430
H       1.27141422      2.00809209      0.61511949
H       2.75736134      0.58763029     -1.66675215
H       1.69996656      1.98209321     -1.84575215
H       4.28888604      1.92485510     -0.20552121
H       4.07179872      2.67411352     -1.79653685
H       3.22361981      3.33298291     -0.38720864
