28
O=C(O)Cc1ccc(-c2ccccc2)cc1
O       4.05168496     -0.75413344      1.51722038
C       4.47410945     -0.43260192      0.42005825
O       5.79843828     -0.51383173      0.16155810
C       3.70517869      0.08231235     -0.77178480
C       2.21222464      0.14734031     -0.55820621
C       1.62384448      1.28118284      0.01381909
C       0.24179738      1.33501232      0.22167334
C      -0.58790322      0.25961754     -0.13173596
C      -2.04199717      0.31797915      0.08943597
C      -2.94428235      0.08722811     -0.96240930
C      -4.32501319      0.14328204     -0.75318108
C      -4.82706729      0.43004761      0.51365723
C      -3.95024422      0.66098732      1.57051846
C      -2.56985390      0.60575471      1.35918115
C       0.01310143     -0.87531443     -0.69781929
C       1.39500005     -0.93445796     -0.90579024
H       6.17613474     -0.85291813      1.00078645
H       3.91983452     -0.56797374     -1.62830530
H       4.07880585      1.08350521     -1.01761625
H       2.23426460      2.13272980      0.30614185
H      -0.18837902      2.23377732      0.65928824
H      -2.57240013     -0.12781088     -1.96214212
H      -5.00614249     -0.03500667     -1.58102963
H      -5.90052897      0.47298831      0.67736439
H      -4.33793738      0.88126118      2.56162089
H      -1.90163711      0.77712874      2.20094129
H      -0.59564163     -1.73623666     -0.96731693
H       1.82460900     -1.83643689     -1.33592797
