33
COCCCCC(=O)c1ccc(C(F)(F)F)cc1
C       6.20343428     -0.40696234     -0.15439688
O       4.82173823     -0.68109741      0.03569552
C       4.09024124      0.50402297      0.34692054
C       2.61595059      0.15284217      0.52381672
C       1.98910557     -0.36433746     -0.77716535
C       0.50644525     -0.70707911     -0.61519449
C      -0.39086992      0.51759243     -0.51485208
O       0.03247893      1.66059086     -0.67672930
C      -1.84381463      0.31799456     -0.21941211
C      -2.42672659     -0.95187868     -0.14011318
C      -3.79227248     -1.08426232      0.13860499
C      -4.59596605      0.04716514      0.34733936
C      -6.07337999     -0.10049488      0.62493375
F      -6.58563266      0.92421724      1.36129620
F      -6.37324513     -1.23796191      1.31222257
F      -6.81103227     -0.14816911     -0.51780742
C      -4.00962751      1.31716077      0.25493676
C      -2.64610017      1.45040803     -0.02335094
H       6.71216360     -1.34663534     -0.38555605
H       6.34537538      0.28245830     -0.99222095
H       6.64010481      0.01197302      0.75730743
H       4.47654842      0.93096727      1.27950468
H       4.21309836      1.24009642     -0.45602853
H       2.51887677     -0.62088723      1.29515699
H       2.08175914      1.04107978      0.87712691
H       2.12274127      0.37596273     -1.57514957
H       2.51682463     -1.27214438     -1.09390380
H       0.18832232     -1.27484619     -1.49738148
H       0.37373084     -1.33026510      0.27579845
H      -1.84620394     -1.85671842     -0.29671057
H      -4.23010640     -2.08102774      0.19285478
H      -4.61198389      2.21344218      0.40032622
H      -2.21197802      2.44751529     -0.08786917
