27
NC(Cc1c[nH]c2ccccc12)C(=O)O
N      -2.11335757      1.34273254     -0.31853985
C      -2.36207247      0.59301791      0.95841950
C      -1.08877214      0.22414270      1.73766249
C      -0.05817636     -0.50709932      0.92807959
C      -0.05464141     -1.85920688      0.64646555
N       1.03622144     -2.13747406     -0.13030486
C       1.75536576     -0.98949705     -0.36619760
C       2.92812850     -0.79828330     -1.10640695
C       3.45009934      0.49648889     -1.17109251
C       2.82379135      1.55515783     -0.51871274
C       1.65134384      1.34645445      0.21702253
C       1.10124445      0.04993524      0.29608047
C      -3.21494372     -0.64755694      0.64203977
O      -3.45008607     -1.56728432      1.40953454
O      -3.73366508     -0.57443523     -0.61406395
H      -1.33599445      0.87189244     -0.80331241
H      -1.71059111      2.24982487     -0.06670761
H      -2.99491478      1.23241833      1.58577804
H      -1.35035472     -0.38854751      2.61017228
H      -0.64173547      1.14309085      2.13770956
H      -0.74175804     -2.64735896      0.93153710
H       1.28166328     -3.05259386     -0.48259635
H       3.42122778     -1.62215101     -1.61218791
H       4.36174144      0.67723605     -1.73636781
H       3.25104014      2.55330009     -0.57760615
H       1.17948641      2.18125371      0.72576373
H      -3.39029035      0.27454254     -0.99256674
