27
O=C(Nc1ccccc1)c1ccccc1O
O       0.18468116     -1.85302595      0.29404575
C       0.41550585     -0.66781259      0.06954061
N      -0.51707366      0.32925818     -0.14887360
C      -1.92117441      0.22302437     -0.05148362
C      -2.67512419      1.34270158     -0.42867766
C      -4.07055234      1.32183715     -0.35521245
C      -4.72602202      0.18146676      0.09982871
C      -3.98542715     -0.93428386      0.48193828
C      -2.58860710     -0.91342131      0.40826818
C       1.84577569     -0.25946461     -0.04690082
C       2.26311889      1.04588898      0.25710072
C       3.60782198      1.40407931      0.12161912
C       4.54368820      0.46348547     -0.30756962
C       4.14296727     -0.84241048     -0.58642225
C       2.80489905     -1.20413582     -0.44412987
O       2.50024231     -2.51306907     -0.71101963
H      -0.17526010      1.21428995     -0.49801288
H      -2.19026319      2.24607462     -0.78859938
H      -4.64446095      2.19519491     -0.65378190
H      -5.81107400      0.16067152      0.15810375
H      -4.49153393     -1.82716379      0.84063153
H      -2.05219841     -1.80230760      0.72422969
H       1.56601063      1.79088552      0.62980840
H       3.92924007      2.41547459      0.36031675
H       5.58968847      0.74181466     -0.41165254
H       4.87224883     -1.58287772     -0.90476566
H       1.58288305     -2.67617478     -0.39411840
