50
COc1cccc2c1CN(C(=O)c1cc(S(C)(=O)=O)ccc1O[C@@H](C)C(F)(F)F)C2
C       6.26244977     -0.76487781      1.99509611
O       4.97605053     -0.45872195      1.47192353
C       3.90297833     -0.98304328      2.13035906
C       3.94325094     -1.80314979      3.26173057
C       2.75630878     -2.28171586      3.84949374
C       1.50890938     -1.95089647      3.31848085
C       1.47444165     -1.13966848      2.19935228
C       2.65631191     -0.66321708      1.61483629
C       2.33572777      0.18779265      0.42839728
N       0.87529796      0.16239393      0.37098295
C       0.20008960      0.86949522     -0.59302031
O       0.73741876      1.55028088     -1.46120246
C      -1.27024109      0.82266520     -0.57681067
C      -1.95178823      1.90781777     -0.01842717
C      -3.34798890      1.88628203      0.01003768
S      -4.22190868      3.24588082      0.75032363
C      -4.32662418      4.43285193     -0.56352888
O      -3.36690067      3.78416812      1.79032552
O      -5.56341651      2.78651667      1.05423538
C      -4.05934941      0.78895852     -0.48651590
C      -3.36690079     -0.28380372     -1.05318993
C      -1.97328781     -0.25509031     -1.12842235
O      -1.34895743     -1.34750984     -1.66606840
C      -0.83484361     -1.09542340     -2.99638871
C       0.51170162     -1.80817852     -3.08877375
C      -1.78944369     -1.62720337     -4.06765266
F      -2.03522481     -2.94826710     -3.92018704
F      -2.98073225     -0.98495648     -4.03325255
F      -1.27968122     -1.44478216     -5.30871108
C       0.28600838     -0.64470547      1.44128430
H       6.45782473     -1.84165181      1.95690761
H       7.00645787     -0.26909631      1.36416642
H       6.37743232     -0.37739579      3.01281836
H       4.88358262     -2.09433765      3.71899534
H       2.81480011     -2.91810914      4.72987615
H       0.59703502     -2.32245671      3.77496767
H       2.67039102      1.22133578      0.56078572
H       2.73650159     -0.23097328     -0.49975009
H      -1.39347044      2.74558220      0.39530468
H      -4.87625824      3.99282469     -1.39778336
H      -3.31821481      4.71755525     -0.86947367
H      -4.86088382      5.30793170     -0.18729009
H      -5.14634880      0.75531308     -0.43229797
H      -3.91781994     -1.13940592     -1.43855179
H      -0.67458956     -0.02474039     -3.17436712
H       0.39982047     -2.88348904     -2.91097010
H       0.97486653     -1.66105311     -4.06910717
H       1.19850884     -1.43492566     -2.32251541
H      -0.35767488     -0.01218447      2.05955086
H      -0.28161674     -1.47061608      1.00402663
