48
O=C1C=Cc2ccccc2/C1=N/Nc1ccc(N=Nc2ccc(S(=O)(=O)O)cc2)cc1.[Na+]
O      -4.65053765      1.41766293      2.34630474
C      -5.30789059      1.26587641      1.32308558
C      -6.74759413      1.59043335      1.31044221
C      -7.51300572      1.30208326      0.25383925
C      -6.97498707      0.65247024     -0.94149542
C      -7.83942462      0.31599643     -1.99231585
C      -7.34778309     -0.29875593     -3.14640810
C      -5.98875556     -0.58060600     -3.26397845
C      -5.11789374     -0.24878596     -2.22680429
C      -5.60869264      0.36513138     -1.06561611
C      -4.67970490      0.72669255      0.03700719
N      -3.39455830      0.57334929     -0.13441917
N      -2.56437568      0.93817303      0.87528842
C      -1.22530765      0.50595029      0.85183905
C      -0.41965817      0.70856173      1.98029481
C       0.93023979      0.33825724      1.97689866
C       1.51199708     -0.21634587      0.83469571
N       2.86237666     -0.60832600      0.86206410
N       3.54406062      0.13015062      0.11652316
C       4.89380343     -0.25899222      0.15203841
C       5.83596846      0.57051365      0.77342655
C       7.18729118      0.21760784      0.80078573
C       7.59738305     -0.96912252      0.18731314
S       9.30733818     -1.42612374      0.24963815
O      10.03575448     -0.52106714     -0.60888701
O       9.39958921     -2.86371411      0.11033403
O       9.74562744     -1.13209983      1.77482490
C       6.67505392     -1.80562960     -0.44515875
C       5.32605880     -1.44259683     -0.46470472
C       0.71739138     -0.40827886     -0.29990484
C      -0.63215086     -0.03805257     -0.29395258
Na      0.00000000      0.00000000      0.00000000
H      -7.14595649      2.05326917      2.20536737
H      -8.57285282      1.54152444      0.27365165
H      -8.90432846      0.52895453     -1.92718415
H      -8.02669530     -0.55601909     -3.95642898
H      -5.60512133     -1.05653424     -4.16367370
H      -4.05736052     -0.47058457     -2.32984478
H      -2.95239248      1.09392433      1.81399267
H      -0.84056902      1.15607089      2.87716306
H       1.53351731      0.49137422      2.86731520
H       5.50732682      1.49621098      1.24026281
H       7.90827483      0.86932117      1.28971797
H      10.07895070     -1.97504626      2.14957611
H       6.99194795     -2.73044332     -0.92206757
H       4.59979802     -2.08329545     -0.95942568
H       1.15146000     -0.84104137     -1.19669902
H      -1.22361253     -0.17811760     -1.19472146
