24
O=[N+]([O-])c1ccccc1-c1ccc(Cl)cc1
O      -0.50296252      0.94926776     -2.63426541
N      -1.14148295      1.30902563     -1.63672737
O      -1.47538556      2.47052058     -1.36580808
C      -1.57393324      0.27503438     -0.71942012
C      -2.93199536     -0.07254086     -0.73972320
C      -3.38459718     -1.07798119      0.11022581
C      -2.48761457     -1.72037579      0.96387590
C      -1.13479171     -1.35794913      0.97596783
C      -0.64448369     -0.34462071      0.13391308
C       0.77669846      0.02293735      0.19400090
C       1.18304074      1.23569020      0.77490366
C       2.53608356      1.58245684      0.83286550
C       3.49529971      0.71770003      0.31233114
Cl      5.16052773      1.14235550      0.38613898
C       3.11357085     -0.49027596     -0.26545949
C       1.76028741     -0.83590283     -0.32287529
H      -3.62769151      0.42871241     -1.40880880
H      -4.43422355     -1.36360853      0.10917101
H      -2.84116649     -2.50601498      1.62890044
H      -0.46049242     -1.87048917      1.66154999
H       0.44709675      1.92326854      1.18938632
H       2.83158773      2.52667700      1.28275357
H       3.86010894     -1.16457360     -0.67659024
H       1.47651883     -1.77931347     -0.78630613
