22
Clc1cccc(-c2cc(Cl)ccc2Cl)c1
Cl     -4.07537543     -2.04889839      0.18508404
C      -2.98934459     -0.72151905      0.04155772
C      -3.49159852      0.56384287     -0.14749046
C      -2.61144379      1.63797162     -0.26615180
C      -1.23306584      1.42162324     -0.19502226
C      -0.71581451      0.13001390     -0.00167016
C       0.73539681     -0.09317755      0.06388327
C       1.48156594     -0.07597390     -1.12997740
C       2.86101358     -0.28643271     -1.11381030
Cl      3.74580659     -0.26060543     -2.58864592
C       3.52634454     -0.51714139      0.08649061
C       2.80598141     -0.53611313      1.28097688
C       1.42191411     -0.32541581      1.27216633
Cl      0.60418125     -0.34710219      2.79690303
C      -1.61375887     -0.94274629      0.11292130
H      -4.56344471      0.73444869     -0.20162002
H      -2.99710475      2.64407516     -0.41141440
H      -0.55954780      2.27242708     -0.28456988
H       0.97764642      0.09844663     -2.07926064
H       4.60083117     -0.68118617      0.10034026
H       3.32848366     -0.71352777      2.21822102
H      -1.23866666     -1.95300940      0.26108879
