34
Cc1cc(N)ccc1S(=O)(=O)Nc1ccccc1[N+](=O)[O-]
C      -2.70020555     -1.36754254      1.02416565
C      -2.07890549     -0.17240207      0.35689505
C      -2.44000028      1.10654854      0.82645216
C      -1.97257197      2.27852237      0.22168613
N      -2.24841361      3.52449366      0.79285317
C      -1.05592488      2.17291925     -0.82153259
C      -0.68524526      0.92161466     -1.31496616
C      -1.18908272     -0.25009414     -0.72892032
S      -0.63473592     -1.80868592     -1.41413565
O      -1.69078433     -2.78511318     -1.26580062
O      -0.06059622     -1.54145479     -2.71678338
N       0.61145090     -2.25699270     -0.35158334
C       1.69371865     -1.33990528     -0.12099651
C       2.55495996     -1.05697950     -1.18818894
C       3.59382573     -0.13255850     -1.04753374
C       3.79086255      0.52283222      0.16542013
C       2.95522526      0.24764956      1.24691126
C       1.91286155     -0.68515463      1.10507539
N       1.08247269     -0.96666018      2.27531264
O       0.47615525     -2.04895681      2.30565047
O       1.04115155     -0.11591815      3.17442518
H      -3.50055473     -1.77359302      0.39807014
H      -3.13923058     -1.09827587      1.99137150
H      -1.96110102     -2.14451793      1.22995702
H      -3.10812034      1.19024084      1.68255506
H      -3.11849191      3.55730939      1.31555697
H      -2.15872015      4.30482653      0.14949454
H      -0.62536599      3.06663990     -1.26604971
H       0.01169100      0.87377272     -2.14983813
H       0.23713190     -2.74128112      0.47388231
H       2.42861053     -1.55990404     -2.14609018
H       4.24939217      0.07405125     -1.89140063
H       4.59964295      1.24334642      0.26971800
H       3.12889830      0.76122306      2.19121052
