18
Cc1cnc2c(=O)[nH]cnc2n1
C       3.11268081     -0.41931612      0.92386948
C       1.76032263     -0.19217927      0.32405914
C       1.63017712      0.12308067     -1.02856254
N       0.43494294      0.33837098     -1.62286422
C      -0.63111776      0.22105831     -0.78771536
C      -1.99630599      0.43256443     -1.31471264
O      -2.23981804      0.71359337     -2.48248431
N      -3.01140256      0.29252482     -0.39444739
C      -2.79225369     -0.01938920      0.91690588
N      -1.62721377     -0.21365174      1.42739889
C      -0.52710801     -0.09241760      0.56481209
N       0.67892209     -0.30392945      1.13922453
H       3.03129979     -0.65533641      1.98974010
H       3.61142657     -1.25687050      0.42647308
H       3.72854915      0.47931643      0.81986709
H       2.49646507      0.21156580     -1.67700689
H      -3.94890573      0.43520087     -0.74500313
H      -3.71066060     -0.09418540      1.52044620
