30
CC(C)CCCCCCO
C      -3.90668191      1.08779304     -0.82480157
C      -2.87520730      0.52368077      0.15554646
C      -3.40681801     -0.76932886      0.77556841
C      -1.52833272      0.32174621     -0.56320191
C      -0.39362047     -0.10202962      0.37439527
C       0.94425607     -0.16594020     -0.36839024
C       2.07778465     -0.59075294      0.56778392
C       3.41694201     -0.77242641     -0.14700931
C       3.98569209      0.52012624     -0.71910243
O       5.27869386      0.27596858     -1.25924780
H      -4.86116211      1.27465813     -0.32128224
H      -3.56302892      2.03758891     -1.24809276
H      -4.08987832      0.39382265     -1.65227972
H      -2.73873367      1.25883420      0.95877327
H      -4.39621694     -0.60952752      1.21782535
H      -2.75074335     -1.12776024      1.57437499
H      -3.49669602     -1.56193108      0.02508936
H      -1.64062199     -0.42530993     -1.35937904
H      -1.24585387      1.26242781     -1.05343383
H      -0.60954315     -1.08600851      0.80498547
H      -0.31752627      0.60954135      1.20530592
H       1.16256717      0.81765506     -0.79907910
H       0.86804002     -0.87658182     -1.20017935
H       2.18817798      0.14493620      1.37372595
H       1.81206304     -1.54279595      1.04380821
H       3.31964387     -1.51704236     -0.94690542
H       4.14276176     -1.19520736      0.55931059
H       3.35656871      0.92447180     -1.51721851
H       4.08571900      1.28100087      0.06094639
H       5.18175480     -0.39160900     -1.95965211
