22
CN(C)C(=O)n1cc(F)c(=O)[nH]c1=O
C      -3.06946809     -0.21789822      0.57214451
N      -1.77705205     -0.02137311     -0.06128421
C      -1.80882279      0.58524174     -1.38522155
C      -0.67071124     -0.65616660      0.48735382
O      -0.79541353     -1.51051495      1.37146963
N       0.59206839     -0.30130497      0.00694188
C       1.55033174     -1.30864193     -0.06612129
C       2.83139989     -1.06818397     -0.33659785
F       3.74871082     -2.04862318     -0.41696705
C       3.28901252      0.31497739     -0.53994218
O       4.45096764      0.60412214     -0.79436740
N       2.30709085      1.26014923     -0.40688460
C       0.98842112      1.04057900     -0.06377446
O       0.27277608      2.02108029      0.13288542
H      -2.96173054     -0.48450437      1.62735857
H      -3.64823854      0.70786219      0.50249205
H      -3.59717932     -1.02298472      0.05226241
H      -2.55226962      0.05906462     -1.99269162
H      -2.10328894      1.63365233     -1.28593814
H      -0.84979614      0.51416126     -1.90161103
H       1.20793440     -2.32581459      0.10504581
H       2.59525735      2.22512043     -0.47483252
