18
Cn1cc2nccnc2nc1=O
C       2.92407306      0.55658078      0.55232020
N       1.58976678      0.03505759      0.30090047
C       0.51900182      0.90144056      0.36336231
C      -0.73664663      0.49146638      0.17042981
N      -1.81841059      1.33387883      0.22554344
C      -2.95728390      0.76549392      0.00505243
C      -3.08999568     -0.69258941     -0.28769421
N      -2.07983920     -1.49149855     -0.33737478
C      -0.82480614     -0.97721031     -0.11006249
N       0.15515240     -1.80672184     -0.15891462
C       1.42351174     -1.33609904      0.06414379
O       2.38615106     -2.09954768      0.05769883
H       3.06460526      1.48993168     -0.00256501
H       3.70177833     -0.14747872      0.24433400
H       3.02718975      0.74873956      1.62489853
H       0.73441595      1.94361713      0.57757829
H      -3.90114776      1.33161806      0.02098038
H      -4.11751626     -1.04667894     -0.46061222
