37
CCCCCCCOC(=O)c1ccc(O)c(I)c1
C      -5.49070184      0.98411470      1.54066556
C      -5.35567798     -0.41645711      0.96347222
C      -4.53296465     -0.46950967     -0.32567308
C      -3.06264061     -0.09334074     -0.12300796
C      -2.26483498     -0.27106079     -1.41758296
C      -0.81415817      0.19812177     -1.30456522
C       0.02304560     -0.62446979     -0.33046405
O       1.37474312     -0.14653203     -0.40004611
C       2.23947730     -0.80047064      0.41369891
O       1.95883644     -1.72188450      1.16357428
C       3.61283183     -0.24295149      0.27877505
C       3.91124353      0.81666992     -0.59023635
C       5.21734451      1.30368916     -0.67985881
C       6.22424534      0.73587439      0.09503955
O       7.47679523      1.26304185     -0.04469033
C       5.93842839     -0.31956691      0.96364549
I       7.42783635     -1.19016227      2.13734452
C       4.63389275     -0.81015166      1.05686825
H      -4.52690445      1.37172599      1.88326694
H      -6.16686351      0.97155431      2.40160258
H      -5.89979083      1.67735370      0.79898861
H      -6.35942616     -0.80325724      0.75047786
H      -4.91388873     -1.08002271      1.71590730
H      -4.58992099     -1.48922967     -0.72643522
H      -4.98417432      0.19061607     -1.07648461
H      -2.63806076     -0.72095954      0.66830065
H      -2.98404867      0.94857127      0.20656363
H      -2.74865520      0.30209787     -2.21822928
H      -2.28701764     -1.32362692     -1.72512524
H      -0.77971078      1.25560550     -1.01390620
H      -0.34782364      0.15261534     -2.29711330
H      -0.00412357     -1.68383688     -0.61082907
H      -0.34556412     -0.50284333      0.69367800
H       3.13860985      1.27379701     -1.20401082
H       5.44909158      2.12506171     -1.35336223
H       8.07079991      0.77239675      0.55173901
H       4.39972987     -1.63257342      1.73067857
