36
CCOC(=O)C1CCC(C(=O)OCC)CC1
C       3.57400399      2.32718960      0.00660520
C       4.25843122      0.97349068     -0.02698867
O       3.40171084     -0.02651545      0.54378172
C       2.50264141     -0.59638907     -0.30938464
O       2.40079102     -0.32896486     -1.49767870
C       1.66177710     -1.62570600      0.43665637
C       0.79617885     -2.46642841     -0.51295947
C      -0.43720979     -1.72545333     -1.03261294
C      -1.26399352     -1.11790811      0.10529309
C      -2.45334399     -0.34009878     -0.43500387
O      -2.62732164     -0.03838318     -1.60675883
O      -3.30605170     -0.03643521      0.58612014
C      -4.47987158      0.70387020      0.22053920
C      -4.18050774      2.19119658      0.22176409
C      -0.39183818     -0.21546644      0.98163885
C       0.81624342     -0.96985498      1.53427832
H       2.66216159      2.32208861     -0.59893820
H       4.23991362      3.10803656     -0.37132437
H       3.27527308      2.58135788      1.02893357
H       5.16556273      1.00453246      0.58536090
H       4.56567191      0.70278670     -1.04360549
H       2.38351114     -2.30943661      0.90436217
H       0.45977062     -3.36279061      0.02429492
H       1.39120855     -2.81904426     -1.36401099
H      -0.12831415     -0.94015285     -1.73339703
H      -1.05751903     -2.42052031     -1.61223776
H      -1.66629818     -1.94411827      0.70711251
H      -5.24451404      0.48197477      0.97216555
H      -4.87490542      0.37377109     -0.74703953
H      -3.41749831      2.43930724     -0.52278433
H      -5.08301782      2.76869673      0.00270996
H      -3.78848806      2.50345856      1.19530980
H      -0.05573599      0.65670504      0.40603910
H      -0.97772428      0.17993667      1.82030878
H       0.45920550     -1.75146830      2.21738838
H       1.42009683     -0.28326433      2.13879991
