41
COCC1CN=C(c2ccccc2Cl)c2cc(Br)ccc2N1C
C       4.67951195      1.95390287     -0.74149349
O       4.29586746      0.63861400     -0.36315157
C       3.25040390      0.61667550      0.61989829
C       1.83200955      0.86526382      0.03824842
C       0.89493072      1.23615774      1.20928043
N      -0.47721212      1.49422324      0.75786372
C      -1.17528383      0.46546769      0.39136433
C      -2.58445169      0.71354233     -0.03292104
C      -3.37099420      1.49915855      0.82583338
C      -4.70710331      1.76091921      0.52083029
C      -5.26492627      1.24870619     -0.64778189
C      -4.48349166      0.48496113     -1.51718999
C      -3.14116180      0.21859039     -1.21945073
Cl     -2.24306172     -0.67605816     -2.39232668
C      -0.67510136     -0.94170846      0.42341725
C      -1.48449214     -1.91822281      1.02591619
C      -1.06963024     -3.24408811      1.02803135
Br     -2.15345853     -4.56642631      1.83241112
C       0.13711879     -3.60263606      0.43931814
C       0.94130270     -2.62250555     -0.15327356
C       0.56612934     -1.26870985     -0.16761486
N       1.35957963     -0.29818676     -0.77125578
C       2.15265555     -0.65744643     -1.94271189
H       5.50702204      1.87577834     -1.45197333
H       5.02394494      2.51998602      0.12918646
H       3.85650023      2.47949516     -1.23190764
H       3.28379827     -0.37379937      1.08847982
H       3.49056121      1.34586433      1.40344075
H       1.85992278      1.72231149     -0.64463646
H       0.91374632      0.48357238      2.00897698
H       1.25986340      2.16059577      1.67397439
H      -2.93809365      1.90833856      1.73679964
H      -5.30837598      2.36862930      1.19286301
H      -6.30477013      1.45462903     -0.89056871
H      -4.92559050      0.10824763     -2.43685369
H      -2.42772820     -1.64344665      1.48901687
H       0.46824085     -4.63790577      0.43463909
H       1.88555683     -2.93596755     -0.59096979
H       3.03543534     -1.24556191     -1.67205178
H       1.55357263     -1.23390927     -2.65716814
H       2.48725292      0.24294832     -2.46928327
