16
O=C1CC[C@@H](C(=O)[O-])N1.[Na+]
O      -2.09762263      0.64996419      1.69879140
C      -1.25071484      0.19691658      0.94544023
C      -1.36896047      0.08703557     -0.55483341
C      -0.14517358     -0.73876485     -0.94197594
C       0.85669908     -0.42027366      0.15636862
C       1.76923119      0.82231298     -0.09808167
O       2.29415230      1.30038903      0.95202230
O       1.88134221      1.19819384     -1.29747940
N      -0.01168435     -0.28324829      1.32230963
Na      0.00000000      0.00000000      0.00000000
H      -2.29919643     -0.41061164     -0.83883010
H      -1.32711297      1.09141192     -0.98694240
H       0.19712589     -0.52046566     -1.95707380
H      -0.40626494     -1.80457678     -0.90536315
H       1.52231313     -1.27252687      0.33392908
H       0.38586639      0.10424363      2.17171861
