29
C=C(C)C(=O)OCCOc1ccccc1
C       4.33273101     -1.03950516      1.42186545
C       4.01241205     -0.06175908      0.55683320
C       4.87832660      1.14588046      0.35640769
C       2.77387424     -0.09582078     -0.27501031
O       2.47562556      0.78959158     -1.06252089
O       2.04067576     -1.21055396     -0.03148711
C       0.84048113     -1.34424669     -0.80786408
C      -0.30023123     -0.51405499     -0.22446713
O      -1.49265629     -0.81560252     -0.94829836
C      -2.63790472     -0.18205851     -0.55143044
C      -3.78273891     -0.54525619     -1.26610977
C      -5.02105986      0.02434147     -0.96490811
C      -5.12126843      0.96538153      0.05653670
C      -3.98378154      1.33446541      0.77256933
C      -2.74349791      0.76294098      0.47010180
H       3.70906418     -1.91632261      1.56767927
H       5.24129391     -0.98996086      2.01419622
H       5.21306995      1.21002293     -0.68427841
H       4.32670856      2.05910712      0.60326529
H       5.77168612      1.11836803      0.98955762
H       0.56583730     -2.40535488     -0.79744251
H       1.02005178     -1.09458193     -1.86127684
H      -0.06156851      0.55251390     -0.30756323
H      -0.41886403     -0.76714197      0.83651235
H      -3.70842817     -1.27847082     -2.06531964
H      -5.90344196     -0.26640704     -1.52839056
H      -6.08327225      1.41215818      0.29325229
H      -4.06033848      2.07127869      1.56819494
H      -1.88278587      1.08104769      1.04838053
