37
CC1CCCC(OC2CCCC(C)O2)O1
C      -2.92043339     -1.35400797     -0.69741857
C      -2.98524330      0.16756808     -0.81259027
C      -3.91071097      0.81481537      0.22053848
C      -3.28694433      0.84953003      1.61052953
C      -1.88173117      1.42923803      1.54210962
C      -1.03765314      0.70291688      0.49605538
O       0.21958206      1.37103517      0.43744825
C       1.16259901      0.65685154     -0.35424281
C       2.38576086      1.55811550     -0.52585569
C       3.49115376      0.83939186     -1.28842896
C       3.77787213     -0.51880990     -0.65701822
C       2.48215865     -1.31159364     -0.47426083
C       2.74023500     -2.62012081      0.25995809
O       1.54677121     -0.55542560      0.29898390
O      -1.68170621      0.75366444     -0.77806453
H      -2.58264966     -1.68366763      0.28929897
H      -2.21137468     -1.75978165     -1.42693755
H      -3.90336254     -1.79930097     -0.88112513
H      -3.38732962      0.39355776     -1.80749140
H      -4.88094886      0.30670802      0.24953416
H      -4.10010678      1.85136033     -0.08770855
H      -3.24932644     -0.16265860      2.02960704
H      -3.90798707      1.45016789      2.28433405
H      -1.39650984      1.38022757      2.52377615
H      -1.94503504      2.49446546      1.28322870
H      -0.88336195     -0.33727350      0.80470547
H       0.73041073      0.42882472     -1.33728727
H       2.76390181      1.84989962      0.46282664
H       2.10663808      2.48730215     -1.03579773
H       4.40075646      1.44972239     -1.29972839
H       3.18325852      0.69927130     -2.33180292
H       4.48963422     -1.07758705     -1.27471935
H       4.24908829     -0.35204217      0.32016754
H       2.03408719     -1.54047881     -1.44959861
H       1.80395745     -3.17315058      0.39242100
H       3.14022090     -2.43615545      1.26325488
H       3.44432869     -3.25257979     -0.28909550
