57
COc1cc2c(cc1OC)C(=O)C(CC1CCN(Cc3ccccc3)CC1)C2
C       7.06692290      3.00776922     -0.35824072
O       6.96582831      1.72328003      0.23876649
C       5.76829875      1.05778233      0.12733802
C       4.65649055      1.55253682     -0.57373599
C       3.49948369      0.78990316     -0.61424742
C       3.46096852     -0.43978126      0.02260942
C       4.53408650     -0.96793388      0.71658746
C       5.70634850     -0.20897346      0.77304678
O       6.84867591     -0.60312336      1.42770871
C       6.82848336     -1.86402044      2.08270344
C       2.13875297     -1.01819851     -0.17347284
O       1.84291608     -2.14178429      0.19285664
C       1.23447324      0.00312791     -0.85218817
C       0.41687228     -0.60055167     -2.00228103
C      -1.05016302     -0.95464840     -1.67611141
C      -1.21433919     -1.90332906     -0.48497588
C      -2.69038229     -2.20376505     -0.21431411
N      -3.45483010     -0.96705946      0.01216971
C      -4.85534592     -1.29620762      0.33742678
C      -5.64888461     -0.11597643      0.85946435
C      -6.84949854      0.26663962      0.24424568
C      -7.58668832      1.34441977      0.73901923
C      -7.13438867      2.04761664      1.85431731
C      -5.94502314      1.67450726      2.47715554
C      -5.20734296      0.59737705      1.98424516
C      -3.36950140     -0.07995949     -1.15801334
C      -1.91570988      0.29525548     -1.46129579
C       2.22630039      1.09199548     -1.33855710
H       8.07025198      3.39373433     -0.15373699
H       6.34669636      3.70612908      0.08053468
H       6.94962540      2.94770947     -1.44517027
H       4.67641646      2.50594708     -1.08861319
H       4.42824438     -1.93698962      1.18855980
H       7.80869875     -2.01632635      2.54468115
H       6.07878083     -1.88272394      2.88051499
H       6.66801653     -2.67796226      1.36808257
H       0.59650104      0.43764924     -0.07433543
H       0.91382906     -1.50699637     -2.37223458
H       0.39612539      0.09885908     -2.84815148
H      -1.44578085     -1.47022450     -2.56341649
H      -0.68562533     -2.84327608     -0.68097670
H      -0.77708497     -1.46610128      0.42040653
H      -2.74532914     -2.84280149      0.67557896
H      -3.11117656     -2.77558068     -1.05197110
H      -5.35667649     -1.73982767     -0.53320679
H      -4.88478141     -2.05685851      1.12949697
H      -7.21764985     -0.27166844     -0.62571374
H      -8.51501892      1.63498261      0.25445936
H      -7.70869599      2.88625817      2.23845124
H      -5.58959605      2.22142235      3.34617589
H      -4.27672177      0.31430991      2.47234656
H      -3.91654425      0.85234756     -0.97700763
H      -3.81920935     -0.55342586     -2.04078838
H      -1.52430375      0.90058391     -0.63502703
H      -1.88745238      0.92650931     -2.35758036
H       1.85238910      2.09049264     -1.08943906
H       2.40326782      1.03692992     -2.41838424
