23
Clc1cccc(Oc2ccccc2)c1
Cl      2.95612528     -2.84205020     -0.72501676
C       2.64027030     -1.24952390     -0.15325966
C       3.66269730     -0.29990031     -0.15713477
C       3.41483818      0.98898449      0.31710560
C       2.14402328      1.32413050      0.78550276
C       1.11938251      0.37554598      0.76536958
O      -0.09852659      0.76749434      1.27442932
C      -1.22349834      0.40256308      0.57066698
C      -2.27766412     -0.14952849      1.29864635
C      -3.45715947     -0.51098608      0.64718888
C      -3.58589051     -0.30522449     -0.72694227
C      -2.53952440      0.26916580     -1.44995359
C      -1.35861317      0.63196083     -0.80095491
C       1.36872633     -0.92245377      0.31335919
H       4.65354833     -0.55994860     -0.52032334
H       4.21081292      1.72931529      0.32547941
H       1.94924726      2.32504983      1.16244798
H      -2.17823094     -0.30230944      2.36963392
H      -4.27668746     -0.94912228      1.21084203
H      -4.50594198     -0.58556171     -1.23382602
H      -2.64629196      0.43980726     -2.51809890
H      -0.55586042      1.09568148     -1.36694802
H       0.58421764     -1.67308961      0.32944693
