52
CC(=O)CC(=O)Nc1ccc(-c2ccc(NC(=O)CC(C)=O)c(C)c2)cc1C
C       8.00828932      0.06445618     -2.65783943
C       7.64033933     -0.75553756     -1.45134730
O       7.51035968     -1.97973494     -1.51319308
C       7.39119680     -0.02401769     -0.16165770
C       6.00971054      0.57802153     -0.12797528
O       5.85883545      1.78524326     -0.28579384
N       5.02406916     -0.37348939      0.07160186
C       3.62541305     -0.17360444      0.15050002
C       3.04244709      1.09593486      0.08234717
C       1.65468460      1.26106164      0.16238050
C       0.80243281      0.16057404      0.31127601
C      -0.65674831      0.33551230      0.39877995
C      -1.35862835      1.06527893     -0.56630841
C      -2.74632349      1.23207482     -0.48140640
C      -3.47760823      0.67388894      0.57112860
N      -4.87881943      0.83306531      0.68602165
C      -5.74578766      1.42166360     -0.21717155
O      -5.47267286      1.86790128     -1.32745439
C      -7.16809456      1.44261866      0.27609856
C      -7.86227283      0.14278648     -0.01064024
C      -8.45709008     -0.04610569     -1.38037034
O      -7.92345175     -0.73652300      0.85151681
C      -2.78837660     -0.05179394      1.56400210
C      -3.48912099     -0.67158228      2.74287818
C      -1.39212380     -0.21567995      1.45761086
C       1.38846788     -1.11314899      0.37098636
C       2.78529427     -1.29694846      0.29701796
C       3.32155327     -2.70606781      0.36052398
H       8.98606609      0.52854186     -2.49441474
H       7.25144164      0.82911816     -2.83304468
H       8.06311573     -0.57840640     -3.54043171
H       7.51578611     -0.71584412      0.67884805
H       8.14582418      0.76166653     -0.03494086
H       5.34030263     -1.33745611      0.12187882
H       3.63820483      1.99485207     -0.02979217
H       1.24679519      2.26950811      0.11331024
H      -0.83242267      1.50769750     -1.41035627
H      -3.22242624      1.81697777     -1.26352612
H      -5.30760518      0.41478774      1.50470796
H      -7.71246918      2.26730880     -0.19393000
H      -7.19429727      1.63470767      1.35403425
H      -9.34277104      0.58858278     -1.47764147
H      -8.74716925     -1.09380310     -1.51176544
H      -7.72304762      0.20917189     -2.14744012
H      -2.77828290     -1.14075172      3.43664535
H      -4.03189603      0.09565517      3.30657260
H      -4.18551778     -1.44636536      2.40730741
H      -0.86260034     -0.77373077      2.23006435
H       0.74042579     -1.98558159      0.47291536
H       3.79969182     -2.97096181     -0.58696795
H       2.52495934     -3.43433722      0.54749192
H       4.04191781     -2.79987370      1.17696264
