25
C=C(C)[C@@H]1CC=C(C)C(=O)C1
C      -2.72997071      0.82379396      0.95841303
C      -2.13631287     -0.08388950      0.16379727
C      -2.92308654     -1.27053124     -0.33683741
C      -0.68945739      0.00015392     -0.32373611
C       0.18752066     -1.06954556      0.35536154
C       1.63816034     -0.95467702     -0.01652994
C       2.20477302      0.13775630     -0.55456131
C       3.64106209      0.22115899     -0.96320911
C       1.37584775      1.36809111     -0.73854993
O       1.85537118      2.36481552     -1.27612126
C      -0.02689088      1.37548755     -0.17075410
H      -3.76839840      0.71632037      1.26130384
H      -2.21704775      1.70027378      1.33941600
H      -3.97366870     -1.22862504     -0.02949631
H      -2.90320274     -1.30551588     -1.43097186
H      -2.50474209     -2.20403982      0.05110620
H      -0.70716249     -0.21685246     -1.40300811
H       0.10004378     -1.01146762      1.44751562
H      -0.15782181     -2.06749003      0.05939425
H       2.24538392     -1.84087665      0.15722877
H       4.15272284      1.01545422     -0.40992300
H       4.17427991     -0.71530170     -0.76798455
H       3.72328866      0.43246909     -2.03435647
H       0.04688713      1.68254064      0.87908610
H      -0.60757889      2.13049707     -0.71416388
