26
C=CCC1(CC)C(=O)NC(=O)NC1=O
C       2.95486454     -1.24883133      0.74187006
C       2.22622402     -0.89550356     -0.32412617
C       1.41375219      0.37516748     -0.41157413
C      -0.11454718      0.17613030     -0.27662450
C      -0.88720229      1.49875312     -0.56476618
C      -0.45629713      2.70880502      0.25694081
C      -0.61779681     -0.81644321     -1.31702359
O      -0.09889471     -0.97561434     -2.42014453
N      -1.76388674     -1.49236179     -1.00098123
C      -2.18017733     -1.74422543      0.26777366
O      -2.95160456     -2.66449231      0.51741611
N      -1.64211547     -0.98140993      1.25495711
C      -0.47571615     -0.27797822      1.13130156
O       0.17067338      0.01032191      2.13622157
H       2.98635693     -0.63723425      1.63973486
H       3.53614070     -2.16589988      0.74129353
H       2.23707313     -1.53842889     -1.20384113
H       1.77417724      1.07354415      0.35466302
H       1.64507991      0.84503306     -1.37684856
H      -0.78195820      1.75748484     -1.62718065
H      -1.96274838      1.34753080     -0.40091169
H      -1.09564892      3.56500816      0.01689123
H      -0.54458933      2.52135488      1.33060788
H       0.57400055      3.00070377      0.03484211
H      -2.08139088     -2.15650690     -1.69442808
H      -1.86376851     -1.28490746      2.19393691
