56
COc1ccc2cc(C(C)C(=O)OCCCCN3CCOCC3)ccc2c1
C       8.59912982      2.06048064     -0.76054693
O       7.56055974      2.77258983     -0.10035185
C       6.38747691      2.10211683      0.11308738
C       5.40416044      2.84519479      0.76538500
C       4.15703924      2.28382390      1.04724889
C       3.87069160      0.96182246      0.67931371
C       2.62109665      0.37940419      0.95448046
C       2.33578360     -0.94460509      0.58520258
C       0.97535746     -1.54359002      0.89455376
C       1.08136866     -2.70972220      1.88024419
C       0.24622356     -1.97263607     -0.37208187
O       0.18546650     -3.12024101     -0.79479161
O      -0.32632563     -0.88804533     -0.97168497
C      -1.01766844     -1.14403342     -2.20265492
C      -2.45108236     -1.60577888     -1.94729453
C      -3.26074009     -0.57235904     -1.15443376
C      -4.70752778     -1.04787315     -0.95550754
N      -5.60255991     -0.16402288     -0.20227381
C      -5.19689104      0.03157013      1.20064509
C      -6.22667635      0.89313033      1.95105229
O      -6.40030582      2.16715386      1.31415696
C      -6.83108214      1.98293958     -0.04219237
C      -5.81577675      1.14702751     -0.83992950
C       3.32582480     -1.68645126     -0.07126214
C       4.57175572     -1.11951055     -0.35043036
C       4.86090791      0.20296912      0.01813782
C       6.11310103      0.78455987     -0.25832906
H       8.91561547      1.19089397     -0.17512561
H       9.45902161      2.73118171     -0.85105105
H       8.29680206      1.76881727     -1.77177447
H       5.61026204      3.87201285      1.05757211
H       3.41217294      2.89031497      1.55695520
H       1.86034721      0.96970766      1.46285331
H       0.34075945     -0.78905860      1.37981120
H       0.08673268     -3.09983075      2.12365111
H       1.66590680     -3.54230650      1.47302108
H       1.55864207     -2.39149223      2.81365715
H      -1.02174967     -0.20562446     -2.76792768
H      -0.47201090     -1.87525815     -2.81085336
H      -2.93822344     -1.79973411     -2.90993130
H      -2.44072729     -2.54902117     -1.38879938
H      -2.78125432     -0.40750021     -0.18368376
H      -3.24400042      0.37987510     -1.69593397
H      -5.15887265     -1.23216795     -1.93918094
H      -4.69582187     -2.02707328     -0.45918366
H      -5.10957885     -0.93586495      1.70768961
H      -4.22370795      0.53410815      1.25185509
H      -5.87918290      1.07958111      2.97225409
H      -7.19731411      0.38672405      2.01704567
H      -6.93019135      2.97497065     -0.49432024
H      -7.82294693      1.51483770     -0.04596280
H      -4.87380334      1.70592920     -0.89116326
H      -6.19148156      1.01459624     -1.86066647
H       3.13747691     -2.71478859     -0.37642986
H       5.31774702     -1.72387380     -0.86219102
H       6.86007392      0.18412994     -0.76733392
