17
NC(=O)NCNC(N)=O
N       2.65142681      2.13757592     -0.54678057
C       2.02322674      1.24567381      0.25919627
O       2.43485877      0.99294143      1.37933497
N       0.91488084      0.71312384     -0.33090480
C       0.03706435     -0.08581989      0.46250392
N      -0.86572171     -0.77255903     -0.40930390
C      -2.03516042     -1.25061530      0.09588440
N      -2.71446132     -2.01450481     -0.79442048
O      -2.45510253     -1.05128096      1.21972192
H       3.54585838      2.43639090     -0.16887367
H       2.67828979      1.89892459     -1.52698095
H       0.44181525      1.35685697     -0.94289873
H       0.60521825     -0.81432800      1.04966397
H      -0.50957258      0.56701601      1.14542588
H      -0.42289572     -1.38248588     -1.07215349
H      -3.63866354     -2.27629420     -0.46475162
H      -2.69106137     -1.70061540     -1.75148257
