33
CC(C)NC(=N)NC(=N)Nc1ccc(Cl)cc1
C      -4.23095123     -0.98387450      0.82683079
C      -3.75449270      0.39612878      0.38344779
C      -4.86356982      1.13023072     -0.36835920
N      -2.59987268      0.26728109     -0.49503709
C      -1.31870075      0.01215926     -0.10365863
N      -0.89912410     -0.02298038      1.11927065
N      -0.47469260     -0.20158475     -1.15216184
C       0.85140684     -0.50123718     -1.25060896
N       1.35930291     -0.67348985     -2.43090143
N       1.50956112     -0.64877741     -0.06502438
C       2.82256953     -0.24625498      0.25060947
C       3.62051201      0.53665398     -0.59338359
C       4.93082556      0.87409720     -0.23540995
C       5.45784119      0.42412666      0.97150769
Cl      7.06826716      0.83806635      1.41129825
C       4.68556253     -0.35797283      1.82408644
C       3.37673815     -0.69061142      1.46188055
H      -4.49619248     -1.60927147     -0.03307245
H      -3.45132247     -1.51021246      1.38745671
H      -5.11130837     -0.90266559      1.47291636
H      -3.49746487      0.99755118      1.26265224
H      -5.74299831      1.26639953      0.26968181
H      -4.52303638      2.12013715     -0.69164438
H      -5.17423342      0.57953830     -1.26345970
H      -2.84449065     -0.09702704     -1.40952235
H      -1.67412986      0.18026202      1.75093141
H      -0.86228746     -0.06791499     -2.07280880
H       2.33111128     -0.97368874     -2.29528881
H       0.87409761     -0.52633298      0.73365144
H       3.22690028      0.92672773     -1.52897812
H       5.52721115      1.49134510     -0.90188994
H       5.09118194     -0.71478260      2.76659958
H       2.78577890     -1.31202590      2.13185308
