29
CCNc1nc(NCC)nc(SC)n1
C       3.97249399     -1.34683663      0.02086052
C       2.49339361     -1.12971158     -0.25800226
N       2.10013140      0.18080745      0.22955570
C       0.77882067      0.52569049     -0.03487386
N      -0.16526502     -0.40441235     -0.05744726
C      -1.39732721      0.01388661     -0.31235147
N      -2.44963209     -0.89340716     -0.37425566
C      -2.34604151     -2.00349402      0.55574391
C      -3.59247970     -2.86795915      0.44788852
N      -1.72197457      1.27605786     -0.52799187
C      -0.70801312      2.13206844     -0.48019405
S      -1.11872299      3.83920124     -0.77724445
C       0.36850476      4.64437238     -0.13523014
N       0.55944837      1.81255723     -0.24437292
H       4.28653715     -2.33358326     -0.33316604
H       4.58311478     -0.59129197     -0.48493895
H       4.18291292     -1.28397282      1.09383719
H       1.92421396     -1.92004844      0.24583695
H       2.31700872     -1.21023596     -1.33755861
H       2.66868682      0.95444587     -0.09812023
H      -3.29916813     -0.34214724     -0.30115936
H      -1.47101177     -2.62349457      0.32691714
H      -2.25146124     -1.63841379      1.58570987
H      -3.52963219     -3.71554439      1.13729327
H      -3.71172085     -3.25966984     -0.56791412
H      -4.49206792     -2.29329012      0.69291285
H       0.53481611      4.37594713      0.91185818
H       1.24590851      4.37393532     -0.72930472
H       0.23852655      5.72854327     -0.19428813
