40
Cc1[nH]cnc1CN1CCc2c(c3ccccc3n2C)C1=O
C       3.64603782     -1.77858948     -0.32512988
C       3.80942451     -0.32366583     -0.54469579
N       4.48014794      0.19533813     -1.62269558
C       4.43344137      1.55554758     -1.52810459
N       3.77183212      1.94193762     -0.46317153
C       3.37046477      0.77893106      0.16815836
C       2.56534514      0.84135125      1.42873358
N       1.13995190      0.87671945      1.12651964
C       0.62829213      2.06240069      0.41541621
C      -0.88229392      2.28887105      0.60026048
C      -1.56776239      0.98001606      0.43979975
C      -0.95103470     -0.23689371      0.66401986
C      -1.92002287     -1.24932927      0.40862429
C      -1.89910449     -2.65921604      0.45727826
C      -3.04837743     -3.38343118      0.12645239
C      -4.21333748     -2.72428858     -0.25129831
C      -4.26473531     -1.32808904     -0.30534092
C      -3.10709894     -0.60613306      0.03218041
N      -2.86846764      0.75630376      0.08139052
C      -3.85678058      1.77354127     -0.20256873
C       0.44282931     -0.34077892      1.09458629
O       0.94171639     -1.41237756      1.42809836
H       4.44501446     -2.34518436     -0.81446529
H       2.68879763     -2.11899385     -0.73181976
H       3.67522576     -2.01860900      0.74209128
H       4.92780887     -0.33150075     -2.35974877
H       4.89433854      2.20516313     -2.25984261
H       2.81459581      1.74834319      1.99111819
H       2.80071938     -0.01203641      2.07352300
H       0.84762864      1.91946344     -0.65032563
H       1.16876087      2.94973201      0.76343480
H      -1.07908753      2.67255440      1.60819548
H      -1.23362443      3.03062679     -0.12382869
H      -0.99107812     -3.17990110      0.75108019
H      -3.02656471     -4.46937541      0.16588339
H      -5.09830255     -3.30243618     -0.50645159
H      -5.18077741     -0.82705598     -0.60026428
H      -4.82432604      1.45688358      0.19471437
H      -3.57112299      2.71118475      0.27945557
H      -3.90847383      1.90297647     -1.28630889
