34
OC[C@@H]1CO[C@@](Cn2cncn2)(c2ccc(Cl)cc2Cl)O1
O      -2.79702765     -3.17352142     -1.67929446
C      -3.23352304     -2.23729640     -0.69629185
C      -2.02752377     -1.59899667     -0.02656761
C      -2.37500974     -0.58930214      1.02869705
O      -1.19753648      0.21564861      1.12297158
C      -0.53637753      0.12883099     -0.17003901
C      -0.61105080      1.51507523     -0.83499384
N       0.18294837      2.51729577     -0.16339956
C      -0.10826292      3.18341627      0.98614277
N       0.85721879      4.03053991      1.25815784
C       1.72478632      3.85087510      0.21853524
N       1.35069622      2.93936914     -0.68319166
C       0.89225551     -0.39908629     -0.00545308
C       1.47436380     -0.44013933      1.28152350
C       2.78133926     -0.89323675      1.47896797
C       3.53682355     -1.31203864      0.39183655
Cl      5.14519701     -1.87168614      0.63206759
C       2.99836599     -1.27913015     -0.88898849
C       1.68852086     -0.82387290     -1.08932007
Cl      1.12981757     -0.81998564     -2.72703297
O      -1.29995352     -0.80422509     -0.97188853
H      -2.13987706     -2.70760942     -2.23204783
H      -3.84877574     -1.48998750     -1.20786772
H      -3.85321340     -2.77071390      0.03023512
H      -1.34066669     -2.36623889      0.35142909
H      -3.19984019      0.06489409      0.72556619
H      -2.60951306     -1.03657248      1.99804268
H      -0.30405465      1.48842770     -1.88562153
H      -1.64644820      1.87946645     -0.82950405
H      -1.00253997      3.01472260      1.56991776
H       2.65177360      4.40043539      0.11554909
H       0.91659946     -0.10422563      2.15518540
H       3.20112217     -0.90802602      2.48186855
H       3.59936593     -1.60310584     -1.73519171
