35
OCCOCC(COCCO)OCCO
O       3.23006200     -1.79644460     -2.50816235
C       3.84690951     -1.29001829     -1.32618929
C       3.41419896      0.15588549     -1.09118135
O       1.98393854      0.24924748     -1.02289257
C       1.46199408     -0.05334459      0.27868949
C      -0.06048657      0.17011652      0.28796948
C      -0.68585336     -0.56137977      1.49145331
O      -2.11674403     -0.45866540      1.49530513
C      -2.77854068     -1.41863475      0.66214468
C      -3.04694955     -2.69385552      1.45943799
O      -3.81920695     -2.38851042      2.61882995
O      -0.38081561      1.56788840      0.43475106
C      -0.17277057      2.33821083     -0.75496234
C      -0.90141848      3.66574075     -0.57136072
O      -2.29495312      3.42287036     -0.37892158
H       2.33569228     -1.40535299     -2.53680994
H       3.54900617     -1.93712909     -0.49693043
H       4.93184459     -1.35574133     -1.44697749
H       3.87969607      0.57881777     -0.19460786
H       3.71656156      0.76343177     -1.95061945
H       1.94156409      0.59793643      1.01845276
H       1.69046196     -1.09904679      0.50668936
H      -0.51175038     -0.19195400     -0.64259818
H      -0.34687241     -0.08722995      2.41948006
H      -0.38464629     -1.61404189      1.52430595
H      -2.20808398     -1.62876722     -0.24761362
H      -3.73330548     -0.96724602      0.37317714
H      -3.59888384     -3.42088278      0.85731215
H      -2.11484051     -3.15379641      1.79931830
H      -3.48102268     -1.53140141      2.94578841
H      -0.58891326      1.80725420     -1.61797763
H       0.89526629      2.52058073     -0.89982313
H      -0.77846449      4.30623649     -1.44887860
H      -0.53359242      4.19486292      0.31330992
H      -2.33908140      2.71436306      0.29466340
