26
C=CC(=O)NC(C)(C)CS(=O)(=O)[O-].[Na+]
C       3.83360771      1.40432589     -0.52914953
C       2.59039229      1.28694455     -0.04529808
C       1.74780145      0.10637047     -0.38066159
O       2.14281030     -0.78388373     -1.12259144
N       0.52251948      0.16053365      0.22795348
C      -0.64871613     -0.68113797     -0.08917447
C      -0.28750141     -2.17736082      0.05266567
C      -1.10382293     -0.42721887     -1.53514184
C      -1.78408716     -0.41747540      0.92941628
S      -2.37019594      1.25833049      1.01778292
O      -1.13633842      2.04313133      1.11790839
O      -3.18515188      1.25459227      2.23042785
O      -3.12210146      1.43856855     -0.21965963
Na      0.00000000      0.00000000      0.00000000
H       4.25982325      0.64358593     -1.17647800
H       4.44119946      2.26813445     -0.28702318
H       2.16599082      2.05087992      0.59632404
H       0.25429881      1.06473194      0.63850689
H      -1.17291560     -2.81058481     -0.07747030
H       0.44617511     -2.50136743     -0.69176702
H       0.13561954     -2.38781692      1.04179264
H      -0.36494855     -0.79533815     -2.25625281
H      -1.22725263      0.64100399     -1.73991316
H      -2.05126618     -0.93385750     -1.74868936
H      -1.42820668     -0.65685403      1.94023652
H      -2.65773325     -1.04823779      0.72684971
