47
CCCNC(=O)c1nnc2c(-c3cnc(OC)nc3OC)cccc2c1N
C       6.73064211     -2.90787336     -0.45951247
C       5.42515619     -2.16110419     -0.24255370
C       4.73608627     -1.84409218     -1.56630100
N       3.47795951     -1.16185576     -1.35889877
C       3.39351990      0.20367949     -1.15867061
O       4.36627661      0.95245177     -1.19981099
C       2.01838122      0.72038242     -0.85612516
N       1.08494131     -0.23756687     -0.66307541
N      -0.19306936      0.12587309     -0.34279258
C      -0.56139790      1.41754989     -0.24378983
C      -1.89758795      1.75212327      0.05422250
C      -2.91357147      0.70836596      0.28064704
C      -3.27855231     -0.19021133     -0.70671574
N      -4.21516481     -1.15071577     -0.56171108
C      -4.80339791     -1.21711077      0.64146393
O      -5.77455294     -2.16427251      0.88243534
C      -5.99557673     -3.02774812     -0.22413338
N      -4.54106716     -0.41545543      1.67802824
C      -3.59709722      0.52521877      1.47579404
O      -3.27991638      1.37699103      2.52181727
C      -3.96951286      1.07469365      3.73084619
C      -2.28231256      3.10430719      0.12639323
C      -1.36245842      4.11728267     -0.09783878
C      -0.04202533      3.78977509     -0.38618878
C       0.39085109      2.44490429     -0.45139475
C       1.73821427      2.08551230     -0.72422159
N       2.70248013      3.08340645     -1.02883230
H       7.42785810     -2.31301217     -1.05824960
H       7.20749786     -3.12484321      0.50146258
H       6.55808216     -3.85789556     -0.97533554
H       5.62497014     -1.23518001      0.30965654
H       4.76075539     -2.76532600      0.38695299
H       4.51510473     -2.76483340     -2.11623222
H       5.38096745     -1.21716675     -2.19209604
H       2.63254218     -1.70755321     -1.21447603
H      -2.81320028     -0.16304041     -1.68954798
H      -6.76574277     -3.74964927      0.06489077
H      -5.09135950     -3.59254776     -0.47709197
H      -6.37039210     -2.47454467     -1.09254537
H      -3.72780150      0.06660504      4.08520977
H      -5.05088336      1.20403399      3.61324340
H      -3.63141001      1.78419805      4.49237531
H      -3.31375568      3.36984946      0.35530877
H      -1.67122496      5.15879829     -0.04998756
H       0.65133974      4.60665721     -0.57333406
H       3.65615273      2.69583826     -1.06384452
H       2.66325239      3.89790029     -0.42544012
