18
COc1cc(C(Cl)(Cl)Cl)cc(Cl)n1
C       3.27942574      0.33837524      0.42037575
O       2.04577836      1.05049819      0.45646035
C       0.95602277      0.26651531      0.13402029
C      -0.27893332      0.90588545      0.15170997
C      -1.44092957      0.18359101     -0.16360462
C      -2.83889296      0.79330313     -0.17217678
Cl     -3.87987994     -0.07889956      1.00460580
Cl     -3.55457769      0.62736419     -1.81213679
Cl     -2.89332097      2.53136138      0.25733283
C      -1.26291159     -1.17714901     -0.48424212
C       0.01363151     -1.71660936     -0.47207670
Cl      0.27257391     -3.36724546     -0.85605599
N       1.12762075     -1.03072119     -0.17143636
H       3.28992985     -0.47423547      1.15506455
H       4.07606368      1.03922338      0.68811924
H       3.49108916     -0.03749908     -0.58666519
H      -0.29633422      1.95965567      0.41392834
H      -2.10635547     -1.81341382     -0.74119300
