20
CCC(=O)c1cccc(Cl)c1
C      -3.33273765     -0.75328019     -0.40537473
C      -1.85318073     -0.90222552     -0.08839854
C      -1.08798701      0.39533975     -0.28732507
O      -1.63570397      1.42979761     -0.66316393
C       0.38273373      0.41028254     -0.01529236
C       1.08289695      1.61252632     -0.20127244
C       2.45689146      1.67978499      0.03880509
C       3.14228667      0.54483210      0.46702552
C       2.44974957     -0.65031597      0.65256118
Cl      3.29875896     -2.05138978      1.18173714
C       1.07598143     -0.72667567      0.41492708
H      -3.79924855     -0.00055819      0.23878919
H      -3.48319650     -0.44511862     -1.44535994
H      -3.85248992     -1.70404397     -0.25194146
H      -1.42799763     -1.66740077     -0.74646270
H      -1.74725177     -1.21832106      0.95476287
H       0.55801664      2.50676164     -0.53582534
H       2.98879870      2.61682602     -0.10873911
H       4.21191451      0.59813888      0.65367429
H       0.57176510     -1.67496012      0.57063680
