54
O=C(OCC(=O)N(C1CCCCC1)C1CCCCC1)c1ccccc1
O       2.75081818     -0.61749976      1.42262812
C       3.30522445     -0.51367930      0.33899919
O       2.75822717     -0.82750203     -0.86261428
C       1.37044337     -1.16567959     -0.79670810
C       0.46683522      0.07096558     -0.66105805
O       0.94537337      1.19760278     -0.81870877
N      -0.89156042     -0.13469153     -0.37393353
C      -1.50531383     -1.48015680     -0.27866838
C      -2.73407695     -1.64924904     -1.19117216
C      -3.31401070     -3.05881093     -1.08181512
C      -3.63483725     -3.42264651      0.36555064
C      -2.41794809     -3.26059629      1.27268513
C      -1.82279864     -1.85715417      1.17671286
C      -1.74359271      1.04161629     -0.07650562
C      -1.25979488      1.84821887      1.14305493
C      -2.20899088      3.00535856      1.45160685
C      -2.42217499      3.89842991      0.23214785
C      -2.90746330      3.10078937     -0.97547349
C      -1.96673109      1.94204577     -1.30283126
C       4.71032222     -0.05429907      0.17308939
C       5.48275940      0.14408030      1.32585618
C       6.80712599      0.57393567      1.22100285
C       7.36549608      0.81071318     -0.03441696
C       6.60200688      0.62125076     -1.18605148
C       5.27669498      0.19073995     -1.08530632
H       1.20089557     -1.87162035      0.02319260
H       1.12212653     -1.66138371     -1.74084172
H      -0.78213867     -2.21532974     -0.64151411
H      -2.45320979     -1.44772409     -2.23194632
H      -3.52189440     -0.93189905     -0.93717009
H      -4.22256499     -3.13105318     -1.69025583
H      -2.59775577     -3.78201574     -1.49076330
H      -4.44880895     -2.78400172      0.73018449
H      -3.99412387     -4.45677124      0.41372587
H      -1.65566100     -3.99907600      0.99522378
H      -2.70123015     -3.46984490      2.31038900
H      -0.91107578     -1.80430739      1.78397308
H      -2.52925318     -1.14151669      1.61402085
H      -2.73051814      0.65782292      0.20673821
H      -0.25758345      2.25744179      0.97889939
H      -1.18675179      1.19206227      2.01865350
H      -3.17465657      2.60661911      1.78602906
H      -1.80645114      3.60076514      2.27886072
H      -3.15064370      4.68096911      0.47254409
H      -1.48129916      4.40354089     -0.01881307
H      -2.99198394      3.76272821     -1.84472305
H      -3.91219631      2.70906724     -0.77426985
H      -1.01998587      2.35325137     -1.66887400
H      -2.38726329      1.35328343     -2.12678429
H       5.05383650     -0.03368553      2.31020507
H       7.40059118      0.72694620      2.11894318
H       8.39584832      1.14849426     -0.11542172
H       7.03670449      0.81356548     -2.16391752
H       4.69501376      0.05988988     -1.99435844
