22
O=C(O)C(CO)c1ccccc1
O       1.93038807     -0.14415207     -2.39753275
C       1.92407231     -0.49520819     -1.22781341
O       2.47969454     -1.67133456     -0.86889375
C       1.31370693      0.25049073     -0.06115673
C       1.44505393      1.76009321     -0.30256419
O       1.19736158      2.49491315      0.89799854
C      -0.12750093     -0.16545515      0.19108896
C      -1.10599455     -0.06718431     -0.81117911
C      -2.42649544     -0.43904353     -0.55328891
C      -2.78606171     -0.91188188      0.70660941
C      -1.82577607     -1.01481023      1.71029702
C      -0.50443353     -0.64408648      1.45544804
H       2.79411499     -2.06019157     -1.71188020
H       1.91636510      0.01249214      0.82629355
H       0.76382527      2.12703613     -1.07825995
H       2.46331806      2.00903832     -0.62168322
H       0.26400218      2.34525832      1.13673602
H      -0.85050175      0.29678583     -1.80534966
H      -3.17512752     -0.36123545     -1.33784659
H      -3.81433134     -1.20255279      0.90554927
H      -2.10534137     -1.38605177      2.69310361
H       0.22966126     -0.73291984      2.25432406
