46
CC(C)CC(N)C(=O)NC(Cc1c[nH]c2ccccc12)C(=O)O
C      -4.34027487     -1.10521143     -1.30848428
C      -3.22343644     -0.19885435     -1.82650264
C      -3.81648125      0.89295812     -2.72215481
C      -2.41523434      0.44970249     -0.68454798
C      -1.72968811     -0.51986595      0.29275816
N      -0.79385863     -1.45033125     -0.38225021
C      -0.95626472      0.26328262      1.38544675
O      -1.18947239      1.42715569      1.69618996
N       0.00405969     -0.50211309      2.00689311
C       0.99745494      0.07174168      2.90863569
C       2.01957940      0.98454090      2.20856866
C       2.63284115      0.39025569      0.97113114
C       3.61891047     -0.57596375      0.92085834
N       3.86447775     -0.87394883     -0.39254123
C       3.06755157     -0.10979661     -1.21159779
C       2.97344688     -0.08212674     -2.60831773
C       2.06608528      0.81460129     -3.17979126
C       1.28880091      1.65184917     -2.38431048
C       1.39609342      1.61053072     -0.98958565
C       2.29798478      0.70941622     -0.38590811
C       1.70629255     -1.05186441      3.65949234
O       1.73788346     -2.23641674      3.36002911
O       2.34924084     -0.62274670      4.76728427
H      -4.94069679     -1.49426186     -2.13798994
H      -5.01004615     -0.56301343     -0.63250867
H      -3.93615084     -1.96760986     -0.76991310
H      -2.55160811     -0.80000550     -2.45048710
H      -3.02644019      1.53062412     -3.13292889
H      -4.36007138      0.45238091     -3.56470579
H      -4.51257189      1.53001847     -2.16588131
H      -1.65625705      1.11047765     -1.12369295
H      -3.08237152      1.10902229     -0.11218041
H      -2.48296014     -1.11279985      0.82364723
H      -0.09722827     -0.89787679     -0.89228306
H      -1.29664272     -1.97848289     -1.09306675
H       0.25361623     -1.35250578      1.49908488
H       0.44427216      0.65710636      3.65414627
H       2.82450048      1.25583645      2.90373800
H       1.52783480      1.92789480      1.94089454
H       4.15512846     -1.09226956      1.70627368
H       4.53056436     -1.56011349     -0.71902037
H       3.58312317     -0.72848422     -3.23123282
H       1.97236124      0.86324572     -4.26237013
H       0.59331158      2.34793236     -2.84703662
H       0.78199781      2.26822250     -0.37940983
H       2.73034242     -1.44213311      5.14779942
