26
O=S(=O)(Nc1ncccc1Cl)c1ccccc1
O      -0.31098880     -0.87236337     -1.64783813
S       0.24203133      0.36261227     -1.13565528
O       0.38163317      1.53509468     -1.97362449
N      -0.57555011      0.85773544      0.26564481
C      -1.95403002      0.51671157      0.24370794
N      -2.70540931      1.54106330     -0.21030969
C      -4.03090118      1.30448089     -0.32618404
C      -4.63215861      0.09851239      0.00393761
C      -3.82973946     -0.93304868      0.48860407
C      -2.45846593     -0.72888255      0.61496332
Cl     -1.47828335     -1.98020357      1.27599184
C       1.84711686     -0.00236078     -0.46155673
C       2.13080496     -1.29677576     -0.01656697
C       3.39664341     -1.58525194      0.49335984
C       4.37255812     -0.58844419      0.54681940
C       4.08953097      0.69890860      0.08672097
C       2.82578394      0.99602362     -0.42399979
H      -0.54796717      1.87909170      0.25574615
H      -4.61883561      2.13622956     -0.70642823
H      -5.70303363     -0.03450790     -0.11052840
H      -4.27565581     -1.88445758      0.76481767
H       1.37831174     -2.08036533     -0.06530857
H       3.62442471     -2.58864604      0.84512049
H       5.35932123     -0.81777528      0.94234431
H       4.85685281      1.46858029      0.12178349
H       2.61600578      1.99803867     -0.79085177
