54
COC1=C(OC)C(=O)C(CCCCCCCCCCO)=C(C)C1=O
C       7.46302920     -0.43564497      1.96226013
O       7.07974052     -0.14378555      0.62056984
C       5.70460755      0.01908881      0.46930162
C       5.23534792      1.14370307     -0.08842403
O       6.12624722      2.16163831     -0.42154602
C       6.03922634      2.55084461     -1.79022270
C       3.76980141      1.35324607     -0.27215850
O       3.32811421      2.40192035     -0.73367444
C       2.83913471      0.25163893      0.11618061
C       1.36993870      0.55589988     -0.09209954
C       0.91592497      0.20905326     -1.51393961
C      -0.53628484      0.60312924     -1.80036239
C      -1.55519330     -0.19470661     -0.98370343
C      -2.98800511      0.15561539     -1.39212029
C      -4.00936576     -0.63717720     -0.57328947
C      -5.44103134     -0.27967720     -0.97742025
C      -6.50323800     -1.12538553     -0.26845899
C      -6.51609193     -1.03157369      1.25782978
C      -6.75507370      0.37692438      1.78397498
O      -6.83860191      0.32538451      3.20247770
C       3.31611323     -0.89565913      0.63300231
C       2.48188398     -2.08473892      1.02704426
C       4.78034115     -1.08934050      0.84434728
O       5.19910716     -2.14263984      1.31658369
H       6.85996012      0.11664548      2.69160878
H       8.50589100     -0.12765255      2.08486704
H       7.41205233     -1.51081968      2.15372473
H       6.99594562      3.00288318     -2.06918230
H       5.86525079      1.69407770     -2.45091585
H       5.26350403      3.30862993     -1.92873838
H       0.76537541      0.01708965      0.64457207
H       1.17020906      1.61470987      0.11581120
H       1.04519967     -0.86499817     -1.69726053
H       1.55616394      0.72783447     -2.23873031
H      -0.72889263      0.44110204     -2.86829107
H      -0.66989027      1.67589471     -1.61514682
H      -1.38413262     -1.26813660     -1.12916665
H      -1.42743996      0.01357996      0.08428273
H      -3.12834294     -0.05649427     -2.45902160
H      -3.15790835      1.22990930     -1.25023855
H      -3.84302380     -1.71123095     -0.71955771
H      -3.85583306     -0.42537848      0.49079740
H      -5.55598519     -0.42906798     -2.05849323
H      -5.62455640      0.78525127     -0.79407677
H      -6.36542624     -2.17679133     -0.55008330
H      -7.48949444     -0.83222917     -0.64946679
H      -5.58435238     -1.42862802      1.67791955
H      -7.30393517     -1.69141106      1.64400840
H      -5.93371241      1.04789776      1.51695946
H      -7.69315359      0.78509632      1.39493218
H      -7.00524971      1.23232452      3.51137027
H       1.43746288     -2.00485392      0.71611568
H       2.49902595     -2.21544911      2.11410680
H       2.86961598     -2.99754255      0.56097194
