36
CCC(C)C(C)(COC(N)=O)COC(N)=O
C      -2.97548574     -2.15614698     -1.17003947
C      -1.52709716     -1.88479737     -0.77647527
C      -1.24359588     -0.40429457     -0.41146775
C      -1.50042633      0.49614687     -1.63294208
C       0.18857937     -0.18045195      0.22820279
C       0.30238161     -0.99404176      1.54365979
C       1.32139751     -0.62193279     -0.73410900
O       2.60439947     -0.39463592     -0.12747803
C       3.65432075     -0.76059802     -0.89576563
N       4.80972990     -0.49937478     -0.24741068
O       3.59971806     -1.24869597     -2.01215916
C       0.41963364      1.31337947      0.60023437
O      -0.66949484      1.79749253      1.40111127
C      -0.55990010      3.09549842      1.75904825
N      -1.62988877      3.45880539      2.49907167
O       0.35152777      3.85394287      1.47262324
H      -3.13756603     -3.23417018     -1.27439622
H      -3.66779030     -1.78253025     -0.40903973
H      -3.22728794     -1.69579365     -2.12965028
H      -0.87937392     -2.20652270     -1.59965212
H      -1.30458632     -2.53146056      0.07741023
H      -1.98574871     -0.11972906      0.34753865
H      -0.86015307      0.22306087     -2.47712530
H      -1.33841671      1.55265928     -1.40485597
H      -2.53975569      0.41979637     -1.96727578
H       0.37257199     -2.06935466      1.35269107
H      -0.56143485     -0.82083826      2.19481650
H       1.19921613     -0.71806640      2.11040975
H       1.23375941     -1.68951429     -0.96516868
H       1.27323196     -0.05054014     -1.66814692
H       4.78963359     -0.03325521      0.64606182
H       5.68377938     -0.66761757     -0.72144549
H       0.50988470      1.92755145     -0.30372461
H       1.34903551      1.42706989      1.17327890
H      -2.35950307      2.79045183      2.69058165
H      -1.69529533      4.40850783      2.83158823
