22
CC(CCO)CCO
C       0.60070218      1.86995212      0.07593181
C      -0.00387135      0.46916381      0.22564964
C       0.78134143     -0.58005918     -0.58324072
C       2.25193066     -0.69275873     -0.19472341
O       2.82737365     -1.77671404     -0.91343306
C      -1.48749641      0.51660679     -0.19127653
C      -2.25494637     -0.77062918      0.09301430
O      -3.63592245     -0.57187885     -0.18638076
H      -0.00109615      2.61353568      0.60981615
H       0.65199461      2.16891575     -0.97645654
H       1.61014905      1.91629852      0.49554923
H       0.04447647      0.19708623      1.28817354
H       0.32590222     -1.56930556     -0.45618243
H       0.71019612     -0.36197613     -1.65687052
H       2.80577753      0.21418926     -0.45237962
H       2.35920428     -0.89041471      0.87634390
H       3.76086117     -1.83298041     -0.64610937
H      -1.57433803      0.76158371     -1.25797909
H      -1.99080679      1.33764679      0.33663280
H      -1.90419538     -1.60341183     -0.52253636
H      -2.16347006     -1.05425782      1.14582513
H      -3.71376636     -0.36059222     -1.13251770
