49
O=C(CCCN1CCC(O)(c2ccc(F)cc2)CC1)c1ccccc1
O       3.80804010     -2.30022982     -0.92613556
C       3.88593512     -1.10026162     -0.66729148
C       2.68176381     -0.17671319     -0.73515777
C       1.40861346     -0.92348046     -1.13996350
C       0.20207008      0.00796903     -1.31561405
N      -0.09686904      0.83932985     -0.14043844
C      -1.08554385      1.88579215     -0.44256908
C      -2.51406692      1.36511222     -0.62841455
C      -2.98769006      0.52899207      0.57563240
O      -3.08875861      1.40342441      1.71401556
C      -4.39492668     -0.02832007      0.32279121
C      -4.67238759     -1.40249506      0.21581803
C      -5.97518382     -1.85734061     -0.01429745
C      -7.01372554     -0.94524104     -0.13746373
F      -8.25907131     -1.38620896     -0.35665665
C      -6.77693928      0.41659219     -0.03330160
C      -5.47670709      0.87105753      0.19602372
C      -1.92096810     -0.52915615      0.91889314
C      -0.52497781      0.08752625      1.04757664
C       5.20851676     -0.52164295     -0.27462211
C       6.32211900     -1.37251272     -0.22802409
C       7.57707183     -0.87761707      0.13230866
C       7.72869401      0.47060864      0.44895374
C       6.62747927      1.32438408      0.40596785
C       5.36942061      0.83250605      0.04542879
H       2.88841134      0.60827900     -1.47122701
H       2.54383033      0.27536088      0.25277179
H       1.57975647     -1.44125203     -2.09284945
H       1.18580115     -1.71040563     -0.40979920
H      -0.66303522     -0.59149708     -1.62090497
H       0.43077869      0.66737073     -2.16343405
H      -1.07152405      2.62241594      0.37150943
H      -0.78059578      2.44497470     -1.33600585
H      -3.16332118      2.23812304     -0.77171725
H      -2.57704911      0.77185663     -1.54957836
H      -3.70360673      0.98819110      2.34427882
H      -3.89051009     -2.15143455      0.30704991
H      -6.18353021     -2.91956963     -0.09801943
H      -7.60090744      1.11620775     -0.12945748
H      -5.30668203      1.94387229      0.28258748
H      -2.16775597     -1.01652140      1.87109222
H      -1.88495582     -1.31386843      0.15456487
H      -0.50623413      0.76514688      1.91144083
H       0.19957202     -0.69507784      1.29696765
H       6.21689876     -2.42802802     -0.47294179
H       8.43400936     -1.54586260      0.16538129
H       8.70576830      0.85612027      0.72999264
H       6.74809047      2.37627117      0.65454721
H       4.53488248      1.52725211      0.02455667
