9
CCC#N
C      -0.95666195     -0.31307303     -0.01211702
C       0.27763420      0.57239981     -0.01345727
C       1.50658150     -0.22791748      0.04449515
N       2.47936484     -0.85879216      0.09027521
H      -1.00264683     -0.92644419      0.89440385
H      -0.95983902     -0.98879278     -0.87438822
H      -1.86355046      0.29831366     -0.05561620
H       0.23824398      1.25319787      0.84393331
H       0.28087374      1.19110830     -0.91752882
