28
CC1(C)OC(=O)c2cc3ccccc3cc21
C       2.98605279      1.27896482      0.09750555
C       2.35602993     -0.11114367      0.11985901
C       2.93250376     -1.00899186     -0.97164365
O       2.63748188     -0.71884406      1.40622702
C       1.49943421     -1.01707873      2.10143346
O       1.43241026     -1.52902085      3.20033132
C       0.38143091     -0.60096050      1.26694370
C      -0.97136696     -0.69792654      1.54219338
C      -1.87736303     -0.22748259      0.58082917
C      -3.26112259     -0.29724960      0.79941145
C      -4.15810234      0.17255216     -0.16104067
C      -3.68450237      0.71767504     -1.35129484
C      -2.31092637      0.79633996     -1.58840356
C      -1.39101060      0.33037911     -0.63732501
C      -0.00513830      0.40757905     -0.87192813
C       0.86978423     -0.06464714      0.09479706
H       2.78459999      1.80176671     -0.84357050
H       2.60776829      1.89888773      0.91919649
H       4.07173526      1.21463498      0.23265470
H       2.72804020     -0.61471299     -1.97277761
H       4.01725645     -1.11308287     -0.85507833
H       2.51600987     -2.02174167     -0.91288983
H      -1.30451716     -1.12922296      2.48183313
H      -3.65377365     -0.71934592      1.72234312
H      -5.22820774      0.11233751      0.02138849
H      -4.38563136      1.08285676     -2.09766840
H      -1.96605049      1.22651255     -2.52622435
H       0.37717492      0.83096557     -1.79710219
