44
CN1[C@H]2CC[C@@H]1C[C@H](OC(=O)C(CO)c1ccccc1)C2
C      -4.43736613      0.95010769      0.71145479
N      -3.41601041      0.65235167     -0.27494880
C      -2.93172102     -0.72986466     -0.31249871
C      -1.89381688     -0.61383335     -1.43572553
C      -1.40484993      0.83750370     -1.35891485
C      -2.18671043      1.44611723     -0.19048451
C      -1.45443893      1.25985828      1.15192933
C      -1.19319981     -0.21255013      1.51476651
O       0.05642807     -0.66224462      0.94203673
C       1.18805413     -0.35056264      1.63907688
O       1.20858380      0.33500146      2.65604523
C       2.43721778     -0.89612352      0.96496537
C       2.27758416     -2.38181212      0.61326848
O       2.27323471     -3.17422536      1.79990633
C       2.85062224     -0.01717929     -0.20646555
C       2.38832419     -0.23696854     -1.51309088
C       2.77476644      0.60698862     -2.55680159
C       3.62156852      1.68434300     -2.30888382
C       4.07925022      1.92317285     -1.01594073
C       3.69396202      1.08134659      0.02862023
C      -2.29666884     -1.16303408      1.02141159
H      -4.75756875      1.99343508      0.61628407
H      -4.12361805      0.79112065      1.74700896
H      -5.32372113      0.33181535      0.53207525
H      -3.72438365     -1.43125497     -0.59546430
H      -1.07473765     -1.33341257     -1.34112505
H      -2.36576538     -0.78275618     -2.41182505
H      -1.65312385      1.35142660     -2.29606664
H      -0.32222832      0.90585368     -1.22644848
H      -2.37582163      2.51023770     -0.37009873
H      -2.05684648      1.71497037      1.94747169
H      -0.51196130      1.81917560      1.11832649
H      -1.12552811     -0.31916449      2.60505631
H       3.22975406     -0.84682384      1.72610310
H       1.35496676     -2.59212740      0.06256481
H       3.12230537     -2.72128495      0.00298120
H       2.22538056     -4.10644218      1.52377537
H       1.70880051     -1.05521779     -1.73856287
H       2.40775974      0.42742754     -3.56426487
H       3.91906020      2.34185551     -3.12148128
H       4.73330401      2.76853521     -0.81783417
H       4.05441854      1.29316157      1.03434653
H      -1.89318441     -2.17772372      0.91268640
H      -3.08207493     -1.22119957      1.78476473
