35
O=P(OC(Cl)CCCl)(OC(Cl)CCCl)OC(Cl)CCCl
O       0.78719527      0.47977880      1.17408806
P       0.02107957     -0.38562051      0.22910295
O      -0.65730574      0.38735738     -0.99953534
C       0.19515573      1.22482418     -1.75689290
Cl     -0.26183633      1.01207196     -3.46798003
C      -0.01130332      2.67251167     -1.31227967
C       0.85806773      3.69576405     -2.03023392
Cl      2.58840861      3.40694165     -1.73936131
O      -1.20407298     -1.18616464      0.88279504
C      -2.20975532     -0.39464276      1.48419993
Cl     -2.49148396     -1.05359480      3.11675924
C      -3.47650151     -0.48316670      0.63422829
C      -4.61035666      0.42107321      1.09568436
Cl     -4.17437407      2.13957385      0.93051135
O       0.88368661     -1.53730189     -0.47474080
C       1.64272817     -2.35499063      0.39328633
Cl      1.41738116     -4.04069961     -0.13882117
C       3.10945607     -1.93948096      0.31321411
C       3.99215996     -2.71538855      1.27887462
Cl      5.66168989     -2.10064789      1.21462118
H       1.23656806      0.90433803     -1.65993293
H      -1.06684977      2.94579681     -1.44445924
H       0.16229119      2.74531601     -0.23107022
H       0.63247179      4.70054968     -1.65991681
H       0.69184127      3.69490063     -3.11079068
H      -1.87140140      0.63782165      1.60978645
H      -3.22999667     -0.25190242     -0.41006884
H      -3.83057307     -1.52252058      0.61540452
H      -5.49677351      0.25440357      0.47615322
H      -4.88939518      0.24038019      2.13713257
H       1.27214675     -2.29293156      1.42221627
H       3.18153179     -0.86553389      0.52921078
H       3.47427806     -2.05271140     -0.71641863
H       3.64134629     -2.60625908      2.30942821
H       4.03249553     -3.77984546      1.03384551
