48
CCCCCCCCCCCCCCCO
C       7.15678760     -1.56694184      1.40875059
C       7.08296226     -0.17397483      0.80276842
C       5.68703432      0.44898551      0.87100906
C       4.65057478     -0.29109941      0.02239126
C       3.30087965      0.43234772      0.04044493
C       2.26274207     -0.31205707     -0.80236239
C       0.92607061      0.42797250     -0.92031744
C       0.16284094      0.51693955      0.40387127
C      -1.17383961      1.25706789      0.28599809
C      -2.21065352      0.51496757     -0.56168547
C      -3.56072428      1.23657415     -0.53657904
C      -4.60750126      0.60103590     -1.45653773
C      -4.96801367     -0.85545796     -1.14664734
C      -5.46225551     -1.12572803      0.27480371
C      -6.72506269     -0.35731415      0.63948027
O      -7.14184267     -0.75527214      1.93937228
H       6.78965804     -1.56717444      2.43988588
H       8.19393653     -1.91736432      1.41852544
H       6.57014503     -2.28747815      0.83153611
H       7.78028015      0.47761790      1.34283883
H       7.42519622     -0.21026062     -0.23800366
H       5.75852239      1.48745049      0.52442048
H       5.35213957      0.48695853      1.91478761
H       5.01085043     -0.37062987     -1.01033599
H       4.51493555     -1.31088339      0.39970904
H       2.95538888      0.51617789      1.07666057
H       3.42536573      1.45120461     -0.34557553
H       2.09409036     -1.31249855     -0.38564074
H       2.66231006     -0.45519999     -1.81418462
H       0.31760095     -0.10632597     -1.65844928
H       1.09707461      1.43509951     -1.31911849
H      -0.00840810     -0.49029071      0.80234239
H       0.77122687      1.05081580      1.14234683
H      -1.57549735      1.39653086      1.29753376
H      -1.00431714      2.25887834     -0.12704579
H      -1.86530688      0.43990018     -1.59845285
H      -2.32316146     -0.50509999     -0.17822563
H      -3.41580408      2.27633474     -0.85621883
H      -3.94020581      1.28141635      0.49061498
H      -5.51630712      1.21389364     -1.42648314
H      -4.24612327      0.65228510     -2.49150299
H      -4.09934785     -1.49500456     -1.34303124
H      -5.74138178     -1.17572655     -1.85636663
H      -5.66014105     -2.20037313      0.38017250
H      -4.67511561     -0.90960289      1.00684398
H      -6.54576052      0.72146827      0.65553127
H      -7.53261928     -0.57603320     -0.06620411
H      -7.94922311     -0.25413122      2.14565564
