60
CS(=O)(=O)c1ccc(-c2ccc(F)cc2)c(C(=O)N2Cc3ccc(C4CCOCC4)cc3C2)c1
C      -5.88836651      0.41476418      4.28911841
S      -4.49619805      1.44187662      3.89793677
O      -4.93788185      2.82331411      3.90281369
O      -3.36892777      1.01898815      4.70591229
C      -4.12090517      1.00838197      2.21659927
C      -4.55816841      1.82256796      1.17145236
C      -4.24771404      1.47860966     -0.14853509
C      -3.48950958      0.32982337     -0.44926982
C      -3.20182079     -0.00113232     -1.85702676
C      -2.49421359      0.89865462     -2.67596198
C      -2.21764972      0.58970861     -4.01010401
C      -2.65080241     -0.61958740     -4.53690576
F      -2.38533850     -0.91549285     -5.81573614
C      -3.35671759     -1.52425501     -3.75613995
C      -3.63358311     -1.21448817     -2.42222608
C      -3.03975323     -0.45305084      0.63532225
C      -2.23650156     -1.67365994      0.42952627
O      -2.81910949     -2.75381890      0.43998019
N      -0.87981797     -1.52615823      0.27062049
C      -0.03145741     -2.69206829      0.04610704
C       1.34367053     -2.11271701     -0.03782850
C       2.54469218     -2.76277332     -0.25131698
C       3.71468706     -1.99778131     -0.28827699
C       3.68454579     -0.59552418     -0.11273461
C       4.98344565      0.19101787     -0.16315679
C       5.01271016      1.18773484     -1.33105964
C       6.30759212      1.98922112     -1.30710061
O       6.46798356      2.65095720     -0.05290953
C       6.55852862      1.73284253      1.03613274
C       5.27937985      0.91510878      1.15851659
C       2.45045941      0.04120407      0.10264705
C       1.29720866     -0.72635185      0.13708468
C      -0.11343411     -0.28039299      0.34760495
C      -3.35308281     -0.12628578      1.96111484
H      -6.70756253      0.65104790      3.60739504
H      -5.59695141     -0.63321865      4.19811773
H      -6.18796958      0.62813373      5.31744539
H      -5.14003907      2.72171727      1.36745956
H      -4.61508424      2.11461565     -0.95392895
H      -2.14234858      1.84710160     -2.27447162
H      -1.66658171      1.28231018     -4.63812696
H      -3.68657816     -2.46507905     -4.18499534
H      -4.18919865     -1.93507435     -1.82283387
H      -0.13455396     -3.38115007      0.89001204
H      -0.33096036     -3.17822010     -0.88745209
H       2.58448733     -3.83884188     -0.38763899
H       4.66228272     -2.50628742     -0.45674739
H       5.80483907     -0.52124635     -0.32846693
H       4.16937321      1.88499596     -1.25024592
H       4.91080288      0.66509565     -2.28924881
H       6.28485666      2.75597577     -2.08799288
H       7.17769585      1.34987023     -1.49719772
H       6.71718933      2.31425211      1.94993146
H       7.43437036      1.08782089      0.89876789
H       5.36827283      0.19715947      1.98209167
H       4.45464804      1.59446321      1.40759120
H       2.39157422      1.11695489      0.24065121
H      -0.43982678      0.40172125     -0.44092241
H      -0.25419496      0.16962297      1.33470463
H      -2.99249245     -0.75437559      2.77390144
