34
C[C@@](C#N)(CCC(=O)[O-])N=N[C@@](C)(C#N)CCC(=O)[O-]
C       1.31287201     -0.21025806     -1.87534768
C       1.33827382     -0.95810808     -0.54192289
C       0.95906501     -2.38460368     -0.73063647
N       0.66147416     -3.50120990     -0.87243547
C       2.70129635     -0.86863851      0.19277632
C       3.91212810     -1.47213682     -0.52735444
C       4.61544095     -0.61246374     -1.57808801
O       5.42896393     -1.24436880     -2.30928215
O       4.31035714      0.60976040     -1.58828644
N       0.34596170     -0.33190840      0.38713635
N      -0.85825488     -0.47995486      0.06886798
C      -1.84757480      0.09495058      1.02873153
C      -3.20210316     -0.52381281      0.65989706
C      -1.50083212     -0.35942098      2.40575654
N      -1.24632973     -0.72026738      3.48300121
C      -1.81078383      1.64069459      0.96459637
C      -2.37067844      2.26773414     -0.31578530
C      -3.88933082      2.46267000     -0.36519144
O      -4.50473915      2.30712438      0.72544281
O      -4.34682115      2.75467192     -1.50527819
H       2.00140465     -0.65168470     -2.60323132
H       0.31630197     -0.23813969     -2.33292134
H       1.57277831      0.84512052     -1.74044537
H       2.90431165      0.17849639      0.45336021
H       2.60424877     -1.39064202      1.15647530
H       4.67894057     -1.67957956      0.23149625
H       3.65438215     -2.43879951     -0.97432675
H      -3.99778508     -0.18315150      1.33068628
H      -3.48705714     -0.29840766     -0.37291567
H      -3.16676851     -1.61826336      0.73814529
H      -2.33156002      2.05691367      1.83728326
H      -0.76936660      1.97573905      1.07025923
H      -1.94205704      3.27353885     -0.41671722
H      -2.04615877      1.69840554     -1.19440065
