23
NS(=O)(=O)c1cc2c(s1)S(=O)(=O)CCC2=O
N       4.21305232      0.08454559      1.08758923
S       3.57239158     -0.35695524     -0.39931185
O       4.03773207      0.62878640     -1.34600917
O       3.82224697     -1.76927459     -0.55684630
C       1.81212623     -0.16567887     -0.33585285
C       0.91536249      0.47272007     -1.17471013
C      -0.43402712      0.36919828     -0.71413919
C      -0.49903067     -0.37086437      0.44616977
S       1.01768456     -0.89243714      0.99750265
S      -1.93648412     -0.80540450      1.37506222
O      -1.86662803     -2.22908669      1.61248265
O      -2.02424552      0.18414840      2.42553086
C      -3.18448506     -0.47059183      0.14065497
C      -2.94651493      0.86752088     -0.54618119
C      -1.63708779      0.92911145     -1.32876915
O      -1.58732113      1.48737410     -2.42101908
H       4.91207581      0.81590786      0.94853237
H       4.60346657     -0.74167934      1.54418883
H       1.22190810      0.99829585     -2.07400055
H      -4.15185996     -0.48320803      0.65140035
H      -3.15577344     -1.29386320     -0.58106129
H      -3.76581731      1.05441191     -1.24984176
H      -2.93877164      1.68702301      0.18155221
