17
O=C1NC(=O)C2(CC2)C(=O)N1
O       3.51773648      0.11274274      0.24846226
C       2.29454030      0.07353943      0.16206744
N       1.63017456     -1.10462285      0.04349407
C       0.27714960     -1.26596020     -0.05937900
O      -0.22771304     -2.37927173     -0.16298709
C      -0.54789983     -0.01756015     -0.03869883
C      -1.92857015     -0.10641097      0.61407126
C      -1.82605668     -0.01392367     -0.87926754
C       0.18483480      1.28076636      0.09201075
O      -0.39947403      2.35917031      0.11868798
N       1.54640234      1.20643114      0.18087473
H       2.19041183     -1.94465402      0.02992602
H      -2.24191349     -1.05361373      1.04060612
H      -2.30760197      0.75857996      1.14833210
H      -2.07042109     -0.89889422     -1.45756010
H      -2.13610993      0.91329946     -1.34983442
H       2.04451033      2.08038215      0.26919424
