17
O=Cc1ccc(O)c([N+](=O)[O-])c1
O      -2.56248903     -2.44346335      0.66503701
C      -2.60102042     -1.22724041      0.53303561
C      -1.37045692     -0.42406644      0.38910115
C      -1.47347766      0.96153333      0.24135734
C      -0.31561499      1.73020476      0.10449650
C       0.94155430      1.12206925      0.11458665
O       1.99778577      1.97980960     -0.02747583
C       1.04084481     -0.26963770      0.26317387
N       2.34593378     -0.93488076      0.27738698
O       3.35221699     -0.21784436      0.15311469
O       2.37407957     -2.16488305      0.41135236
C      -0.11832067     -1.04847341      0.40120639
H      -3.55792455     -0.67895372      0.51598618
H      -2.44257524      1.45537009      0.23082427
H      -0.39087146      2.81006418     -0.01087555
H       2.84255145      1.48084264     -0.01071243
H      -0.06221572     -2.13045064      0.51767700
