74
CC(C)(C)c1ccc(OC(=O)c2cc(C(C)(C)C)c(O)c(C(C)(C)C)c2)c(C(C)(C)C)c1
C       7.07457057      0.03600285      1.15800005
C       6.33317674      1.27276049      0.60565311
C       6.72224476      2.47339409      1.49849054
C       6.84638949      1.58090153     -0.81769937
C       4.81879432      0.99316780      0.56298619
C       3.89265107      1.75670976      1.28092770
C       2.53040872      1.47363111      1.21222184
C       2.06534457      0.42922039      0.40676764
O       0.68605656      0.15088339      0.41538291
C      -0.17195594      1.16503012      0.02171205
O       0.13419948      2.28272133     -0.36519539
C      -1.58455828      0.69047508      0.10314079
C      -1.93703298     -0.52788445      0.69216341
C      -3.27571340     -0.95376851      0.75991134
C      -3.63935341     -2.31233270      1.41386403
C      -4.38125682     -3.22039018      0.40630891
C      -4.51222794     -2.09118086      2.66900485
C      -2.40569115     -3.12765484      1.88676702
C      -4.25523847     -0.08169928      0.21519616
O      -5.55865256     -0.46991608      0.35668873
C      -3.94307158      1.14121433     -0.43150167
C      -4.98921551      2.06183681     -1.11288371
C      -6.02690971      1.26732306     -1.94251562
C      -4.35723500      3.06575227     -2.11766442
C      -5.70778178      2.90414460     -0.03895471
C      -2.58276040      1.50701257     -0.44351754
C       2.94330137     -0.39773705     -0.31845922
C       2.46285457     -1.59446624     -1.16915230
C       3.60906029     -2.34114707     -1.90080343
C       1.77236295     -2.64447506     -0.27120891
C       1.48841960     -1.12666951     -2.27194262
C       4.31661450     -0.07468697     -0.22078650
H       6.94813718     -0.84440893      0.51860434
H       8.15207206      0.22315516      1.23430126
H       6.70996881     -0.22806409      2.15781191
H       6.25792167      3.40316158      1.14952384
H       6.42509800      2.31377782      2.54153612
H       7.80725675      2.63372701      1.49452021
H       6.71473462      0.73403147     -1.49987163
H       6.31634707      2.43733750     -1.25079883
H       7.91592510      1.82127955     -0.80886775
H       4.19958191      2.58807803      1.90832100
H       1.83354834      2.07986712      1.78475548
H      -1.14709797     -1.14205133      1.11119308
H      -4.56191057     -4.21513744      0.83094074
H      -3.79300254     -3.35215159     -0.50965321
H      -5.35942801     -2.82895930      0.11436149
H      -4.70686668     -3.03889606      3.18525283
H      -4.01419228     -1.42148496      3.38024951
H      -5.48899909     -1.65678556      2.43953370
H      -1.83860868     -2.59433677      2.65877795
H      -1.72880572     -3.35591922      1.05495531
H      -2.70869949     -4.08693193      2.32421492
H      -6.07397274      0.30653022      0.62154802
H      -6.64019296      1.93741201     -2.55767565
H      -5.53263461      0.55896243     -2.61764717
H      -6.73688240      0.70898810     -1.32752604
H      -3.72039355      3.80484168     -1.61855087
H      -5.12927030      3.63967672     -2.64469784
H      -3.75914108      2.54841551     -2.87697091
H      -4.99265862      3.50969763      0.53068428
H      -6.43269822      3.58867677     -0.49538876
H      -6.25584203      2.29180391      0.68239242
H      -2.26091035      2.44390321     -0.89258630
H       3.22158867     -3.17986924     -2.49226136
H       4.14292936     -1.68107610     -2.59480059
H       4.33486101     -2.76149599     -1.19460068
H       1.48735936     -3.53190493     -0.84865045
H       0.85784356     -2.26932601      0.19452880
H       2.43958148     -2.97213019      0.53485016
H       1.23345807     -1.95073142     -2.94910734
H       0.54152473     -0.75641735     -1.87305788
H       1.93095760     -0.32524327     -2.87513376
H       5.04371790     -0.66817453     -0.76791219
