35
CC(CCl)OP(=O)(OC(C)CCl)OC(C)CCl
C      -1.47160717      3.40340067      0.05535136
C      -1.63164033      1.89575245      0.21359545
C      -2.55234817      1.51148544      1.37372529
Cl     -4.22987726      2.03808939      1.11178723
O      -0.33079605      1.36658685      0.47174366
P       0.12408079      0.07855055     -0.37746277
O       0.10369402      0.25615471     -1.86066769
O       1.55084771     -0.29447476      0.26230535
C       2.68313473      0.45805112     -0.15910131
C       3.10301987      1.35556996      0.99819882
C       3.81062075     -0.50663917     -0.52630467
Cl      3.38027790     -1.48134830     -1.95889337
O      -0.83260992     -1.08330410      0.18493057
C      -0.79130148     -2.34495111     -0.47495344
C      -0.99616008     -3.43013540      0.57508056
C      -1.82501982     -2.39641802     -1.60661696
Cl     -3.49543720     -2.14464372     -1.02783438
H      -0.74039281      3.62566070     -0.72992104
H      -1.08738323      3.85510426      0.97669039
H      -2.41391401      3.89153880     -0.20811342
H      -2.02184423      1.48116713     -0.72373696
H      -2.19970437      1.94896353      2.31395553
H      -2.56514927      0.42677993      1.51606889
H       2.43360573      1.08683985     -1.02182540
H       2.29088849      2.03861315      1.26849328
H       3.98430302      1.95079577      0.74043105
H       3.32712265      0.76434873      1.89303821
H       4.73349054      0.03084925     -0.76296014
H       4.00646939     -1.21404307      0.28542456
H       0.20449969     -2.48792990     -0.91227897
H      -1.01386766     -4.42551042      0.12123744
H      -1.92141112     -3.27978706      1.14080890
H      -0.18227482     -3.39902836      1.30820343
H      -1.63808926     -1.61210888     -2.34380101
H      -1.79522705     -3.36397998     -2.11659845
