14
Cc1ccccn1
C       2.17937593     -0.13605289     -0.41515759
C       0.70265761     -0.13110175     -0.15707473
C       0.07064504      1.03603624      0.26350399
C      -1.30175169      1.01024210      0.49526508
C      -2.00239186     -0.17370918      0.30192864
C      -1.29671193     -1.28831445     -0.11747703
N       0.03427960     -1.29289056     -0.35012388
H       2.51557004     -1.12685161     -0.73735823
H       2.72346876      0.12847887      0.49683569
H       2.42780133      0.58113099     -1.20362202
H       0.63445533      1.95155852      0.40917818
H      -1.81896390      1.90691817      0.82388567
H      -3.07120758     -0.22760322      0.47342497
H      -1.79722668     -2.23784122     -0.28320874
