49
Cn1nc(-c2cnc3[nH]cc(C(=O)N[C@]4(C)C[C@@H](N)C4)c3n2)c2ccc(F)cc21
C      -5.26890634     -0.31631975     -2.78062786
N      -4.16020020     -0.27304124     -1.85568665
N      -3.61787138     -1.42341806     -1.42080022
C      -2.61613564     -1.04195094     -0.60591098
C      -1.74844691     -2.02711331      0.05063512
C      -2.16808183     -3.35216505      0.19974294
N      -1.44309270     -4.33456489      0.80323926
C      -0.25671423     -3.85784998      1.22733561
N       0.70737067     -4.57634724      1.87468818
C       1.77890613     -3.76300310      2.14675240
C       1.50808139     -2.48963260      1.65940625
C       2.41343681     -1.35150313      1.74684278
O       3.47533745     -1.40991769      2.35783329
N       1.97669370     -0.22259266      1.08195410
C       2.70893405      1.06857666      1.05380833
C       2.59215789      1.76534894      2.39894784
C       2.29787131      1.95250288     -0.16645493
C       3.46840737      1.31673237     -0.94141746
N       4.22115266      2.36556309     -1.61614816
C       4.13004521      1.00450250      0.41490351
C       0.20768833     -2.55425650      1.08793095
N      -0.53714429     -1.58283270      0.48807734
C      -2.56356331      0.38742411     -0.50366704
C      -1.78333143      1.32988574      0.20276670
C      -2.03580980      2.69645533      0.03500193
C      -3.04956031      3.11979740     -0.81357366
F      -3.27386503      4.43287488     -0.95826504
C      -3.84644342      2.21839036     -1.51715780
C      -3.57921850      0.85359774     -1.33762203
H      -5.46858051     -1.35295362     -3.06471144
H      -5.00323760      0.26498429     -3.66713371
H      -6.14521705      0.11014520     -2.28624922
H      -3.13882778     -3.67288215     -0.16987784
H       0.62207357     -5.55608778      2.10637483
H       2.65267609     -4.14784613      2.65843506
H       1.07123098     -0.29949026      0.62260036
H       1.54260560      1.92483763      2.66973234
H       3.08147656      2.74550322      2.38373962
H       3.06311104      1.17993499      3.19545434
H       2.38144005      3.03119380      0.02077379
H       1.30709823      1.76106607     -0.59029548
H       3.21263105      0.44352707     -1.54925947
H       5.14287207      2.06420791     -1.93203434
H       3.75278322      2.73890102     -2.44094803
H       4.81545081      1.77208535      0.79811203
H       4.64831225      0.04195582      0.45812270
H      -0.99712197      1.00655752      0.87865872
H      -1.44301165      3.43298679      0.56941889
H      -4.63546263      2.57623010     -2.16830522
