34
CCCCCCCC(OC)OC
C       5.22757869      0.11862557      0.39482806
C       4.04361695      1.05361552      0.58775358
C       2.76666089      0.57963605     -0.11171107
C       2.18978489     -0.70529428      0.48856927
C       0.91719001     -1.18740637     -0.21596719
C      -0.28037471     -0.25414174     -0.02047504
C      -1.54978850     -0.84654597     -0.64143712
C      -2.77725682      0.05076808     -0.43483451
O      -3.92528743     -0.58193396     -1.00009713
C      -4.59146365     -1.43744986     -0.08375975
O      -2.52842903      1.29272073     -1.09715300
C      -3.56627694      2.23547551     -0.87372553
H       6.13001581      0.56227732      0.82774497
H       5.41627039     -0.06300691     -0.66790855
H       5.06456089     -0.84400802      0.88777092
H       4.31191041      2.03861018      0.18714201
H       3.85489786      1.18844649      1.65912837
H       2.96540737      0.43348073     -1.18026740
H       2.02822976      1.38526266     -0.03337790
H       2.93200510     -1.50818821      0.41579375
H       1.98581985     -0.55765967      1.55592364
H       1.11571184     -1.31727692     -1.28680447
H       0.66462806     -2.17882445      0.18052935
H      -0.44324792     -0.08513670      1.05066022
H      -0.07168259      0.71922912     -0.47652144
H      -1.73677629     -1.84105206     -0.22076351
H      -1.38889555     -0.99368353     -1.71744511
H      -2.92453734      0.24662102      0.63580869
H      -3.93258343     -2.23940708      0.25986422
H      -4.96428865     -0.86468915      0.77094456
H      -5.44608696     -1.88815680     -0.59565406
H      -4.50907799      1.88894774     -1.30704363
H      -3.28787265      3.17281755     -1.36313417
H      -3.69036233      2.42732743      0.19647709
