45
COc1ccc(OC)c(-c2cccc3c(N)c4c(nc23)CN(C)C4=O)c1
C       3.57927833     -1.12518755      3.14919794
O       4.12715046     -1.66868167      1.95467374
C       3.60937407     -1.21058844      0.77384544
C       4.16046032     -1.79481123     -0.36811003
C       3.71965316     -1.42266792     -1.63678661
C       2.71034670     -0.46770613     -1.76513519
O       2.31504447     -0.10794879     -3.03022829
C       1.30781659     -1.00678480     -3.49724342
C       2.15474908      0.16010808     -0.63652701
C       1.12513816      1.21626678     -0.75275030
C       1.50643345      2.46430710     -1.28217453
C       0.59233075      3.50034600     -1.39824854
C      -0.72333883      3.29885588     -0.99728681
C      -1.15541517      2.05794563     -0.47982395
C      -2.50464325      1.83385628     -0.09116095
N      -3.47695262      2.85465276     -0.10693231
C      -2.78732658      0.60773742      0.48166260
C      -1.81581300     -0.36195020      0.59076487
N      -0.54668974     -0.20754631      0.18564331
C      -0.20319593      0.99516858     -0.33904968
C      -2.38572109     -1.60336128      1.21591604
N      -3.76834511     -1.22396321      1.44700836
C      -4.73862986     -2.14168339      1.98987636
C      -4.04369368      0.05589279      1.00157728
O      -5.11050189      0.64156959      0.99542278
C       2.61738365     -0.23531419      0.63517372
H       2.50987848     -1.34666126      3.23066401
H       4.08288951     -1.60290903      3.99513274
H       3.76764005     -0.04848553      3.21499415
H       4.94154566     -2.54408984     -0.26687858
H       4.16201637     -1.87349458     -2.51994299
H       1.71731329     -2.01176355     -3.64616167
H       0.95522424     -0.63887756     -4.46541010
H       0.45006415     -1.04291374     -2.81672854
H       2.53504450      2.62419833     -1.60260518
H       0.90351285      4.46185370     -1.79837053
H      -1.41341872      4.13415163     -1.08610207
H      -4.42376423      2.49815982      0.06185349
H      -3.44211973      3.45976058     -0.91947378
H      -2.34776858     -2.45155842      0.52701174
H      -1.90439609     -1.83513392      2.16964188
H      -4.38730460     -2.49250456      2.96377489
H      -4.84107654     -2.98986976      1.30768430
H      -5.70836874     -1.65082340      2.10581801
H       2.17819567      0.24244929      1.50579338
