49
Cc1ccc(S(=O)(=O)NC(=O)Nc2nccc(Nc3ccc(S(N)(=O)=O)cc3)n2)cc1
C      -7.38596661     -2.81777137     -0.72868452
C      -6.10820567     -2.48765305     -0.01409601
C      -6.14159358     -1.93004556      1.27135889
C      -4.95677375     -1.59474061      1.92863048
C      -3.73270029     -1.79582320      1.28798616
S      -2.22227168     -1.40234413      2.13085875
O      -1.18538815     -2.25409218      1.57925498
O      -2.46536125     -1.37142834      3.55547190
N      -1.87242792      0.11621356      1.59255626
C      -2.60934796      1.27029735      1.80300479
O      -3.66221408      1.27913411      2.42803012
N      -2.13534514      2.42762753      1.26978343
C      -0.98787520      2.63629117      0.52883247
N      -0.78407562      3.89953986      0.14459458
C       0.32007188      4.12689713     -0.58531008
C       1.21949378      3.14467983     -0.92154552
C       0.94280554      1.87383747     -0.46534625
N       1.76196913      0.77764244     -0.75087028
C       3.15712264      0.65726152     -0.88906257
C       3.66158176     -0.49474197     -1.51596095
C       5.03369723     -0.67080847     -1.71593966
C       5.91852145      0.31306289     -1.27769040
S       7.66213853      0.11709931     -1.53276738
N       8.14605015     -0.54392743     -0.06231960
O       7.86731409     -0.92193146     -2.51523658
O       8.25345788      1.42818695     -1.65094505
C       5.44216348      1.47140940     -0.66207219
C       4.06644635      1.63686220     -0.47019871
N      -0.17273600      1.60658790      0.23936319
C      -3.68366745     -2.35070653      0.00627368
C      -4.87231406     -2.68577021     -0.64493964
H      -7.24290160     -3.65745502     -1.41691020
H      -7.73150116     -1.94887555     -1.29711619
H      -8.16649464     -3.10999513     -0.01834479
H      -7.09228615     -1.75484189      1.77103704
H      -4.99610237     -1.16595703      2.92844318
H      -1.02564515      0.18406070      1.03134892
H      -2.68891465      3.25170208      1.44031199
H       0.46361209      5.15411059     -0.90903618
H       2.07928693      3.36662275     -1.53877663
H       1.33686660     -0.07430048     -0.39549243
H       2.97725858     -1.26260186     -1.87322978
H       5.39397818     -1.56621801     -2.21814492
H       8.50756392     -1.48548001     -0.22563222
H       7.41518308     -0.53535307      0.64797988
H       6.13041677      2.24697929     -0.33011951
H       3.72703599      2.53325278      0.04131708
H      -2.73184385     -2.52698698     -0.48868609
H      -4.83008208     -3.10950925     -1.64626106
