36
CCCCC/C=C/CC(CC(=O)O)C(=O)O
C      -5.22286417     -0.59387026      0.73583178
C      -4.01169321      0.31538100      0.87420021
C      -3.15523068      0.39320792     -0.39217643
C      -2.49538213     -0.94121660     -0.75808878
C      -1.55127845     -0.83017659     -1.96293942
C      -0.23342748     -0.12121009     -1.78079045
C       0.32379200      0.28829529     -0.62976809
C       1.65494327      0.98910116     -0.54741798
C       2.71223691      0.18048664      0.21937505
C       4.11244179      0.75204540     -0.04893977
C       5.18974902     -0.08741105      0.58226094
O       5.05495269     -1.15099410      1.16108872
O       6.40973311      0.46152185      0.42654809
C       2.43153872      0.25294427      1.70400803
O       2.78841444      1.13754731      2.46528540
O       1.69891041     -0.78273452      2.15291992
H      -4.92749353     -1.63993644      0.61313159
H      -5.84498494     -0.52943077      1.63437678
H      -5.83670258     -0.30336246     -0.12254126
H      -3.39825728     -0.01983130      1.71862815
H      -4.36152461      1.32555984      1.11855013
H      -3.77273083      0.73806163     -1.23070076
H      -2.38981789      1.16061927     -0.23354418
H      -3.27873281     -1.66301357     -1.01908157
H      -1.96617284     -1.35855292      0.10651633
H      -1.32272639     -1.84559221     -2.31099495
H      -2.08825100     -0.33878248     -2.78418375
H       0.30908084      0.04907990     -2.71051628
H      -0.18976950      0.12410294      0.31459062
H       2.01872759      1.19794619     -1.56162193
H       1.49749504      1.96382864     -0.06805048
H       2.69581270     -0.87226136     -0.09225930
H       4.19686760      1.77336894      0.34067058
H       4.30426249      0.77129186     -1.12804864
H       7.01468401     -0.16151959      0.88145144
H       1.63339768     -0.63449373      3.11915338
