38
COc1ccc2cc(C(C)C(=O)OCC(N)=O)ccc2c1
C       5.30255074     -2.91486278      1.87193277
O       5.22699968     -1.50992766      1.66727130
C       4.07888257     -1.02630889      1.10221875
C       4.06615978      0.35375930      0.90304503
C       2.95634102      0.98063363      0.33260061
C       1.83399790      0.23327911     -0.05081290
C       0.70839865      0.84593058     -0.62963645
C      -0.41536589      0.09747601     -1.01931938
C      -1.61075962      0.80274178     -1.64196415
C      -2.03354505      0.18623382     -2.97579997
C      -2.81403672      0.84679150     -0.70885429
O      -3.18845373     -0.06254857      0.02235769
O      -3.45376944      2.04572935     -0.82845090
C      -4.60429600      2.20935344      0.00251939
C      -4.24896623      2.46147108      1.46669263
N      -4.10146404      1.34102622      2.23507852
O      -4.09658892      3.58104002      1.94393620
C      -0.40018491     -1.28627625     -0.80532040
C       0.71162307     -1.90798999     -0.23021128
C       1.83809679     -1.16373076      0.15006924
C       2.96515496     -1.78008258      0.72711367
H       5.24232886     -3.45610284      0.92183884
H       4.53094289     -3.25434003      2.57092723
H       6.27657178     -3.13535610      2.31921041
H       4.92889972      0.94800234      1.19422090
H       2.97874737      2.05856879      0.19087662
H       0.71379837      1.92479984     -0.77953384
H      -1.31398572      1.84158719     -1.84217090
H      -1.18981142      0.13675020     -3.67271332
H      -2.43088572     -0.82744508     -2.85254692
H      -2.82442114      0.78442666     -3.44256058
H      -5.15866426      3.08055210     -0.36289227
H      -5.27865067      1.34887341     -0.08761277
H      -3.84283853      0.46852184      1.77369902
H      -3.72788811      1.48675671      3.16444398
H      -1.25940751     -1.89919303     -1.07076158
H       0.68694619     -2.98497487     -0.07778469
H       2.94754329     -2.85516552      0.87364713
