20
O=C1CCc2ccccc2N1
O      -3.00800572      1.99038558     -0.15449742
C      -2.08079577      1.18360360     -0.15744473
C      -2.30305651     -0.30241917     -0.32004500
C      -1.26981055     -1.12075137      0.43638188
C       0.12165276     -0.61821829      0.17271926
C       1.22878741     -1.46927680      0.25689965
C       2.51788930     -0.95794375      0.09870439
C       2.70837732      0.40601577     -0.12465099
C       1.60983285      1.26344395     -0.19576605
C       0.32220292      0.74730725     -0.05714671
N      -0.77875353      1.60604039     -0.12219278
H      -3.30684611     -0.55433342      0.03855428
H      -2.26057493     -0.52425523     -1.39334177
H      -1.45786887     -1.05703012      1.51535221
H      -1.36047152     -2.17310461      0.14350504
H       1.09535230     -2.53004700      0.45588392
H       3.37634523     -1.62238325      0.16138939
H       3.71445776      0.80151940     -0.23946927
H       1.77147505      2.32362176     -0.36740841
H      -0.64018939      2.60782532     -0.14742689
