12
O=c1ccc(I)c[nH]1
O      -2.63138560      0.65713729     -0.21238329
C      -1.44940005      0.35273020     -0.11672069
C      -0.38575179      1.38788612     -0.06792905
C       0.89987285      1.01788875      0.03723051
C       1.27657727     -0.38365114      0.10488238
I       3.25756616     -0.92527408      0.26610727
C       0.30679625     -1.31332778      0.05999381
N      -1.01481971     -0.94909052     -0.04765020
H      -0.70292221      2.42072369     -0.12069583
H       1.67977331      1.77175874      0.07315312
H       0.50264438     -2.37998540      0.10479475
H      -1.73895087     -1.65679587     -0.08078279
