77
CC(C)CCCCCCCOP(OCCCCCCCC(C)C)Oc1ccccc1
C       9.66761607      3.83755748     -0.00328854
C       8.57986564      2.95380311     -0.61961199
C       9.22453175      1.75197274     -1.31171639
C       7.57084208      2.53630736      0.46654914
C       6.35714539      1.77936040     -0.08419719
C       5.34519818      1.47966686      1.02541385
C       4.05096584      0.83243253      0.52011648
C       4.26089457     -0.56179995     -0.07514432
C       2.95971840     -1.23175241     -0.52081379
C       2.03736585     -1.61463657      0.63500126
O       0.94178266     -2.34864608      0.09337728
P      -0.10640964     -2.96712212      1.16373847
O      -1.04469345     -1.65545944      1.32513227
C      -2.12714853     -1.76265711      2.24488683
C      -3.02281056     -0.53233653      2.10715664
C      -3.68695657     -0.45724331      0.72876390
C      -4.63339524      0.74179205      0.63078165
C      -5.29321084      0.81288713     -0.74825260
C      -6.18422431      2.04618050     -0.93654424
C      -7.43631649      2.02506235     -0.05203101
C      -8.42697810      3.18268359     -0.28625110
C      -9.03293048      3.15951095     -1.68943718
C      -7.80540218      4.54852911      0.00549596
O      -1.04311516     -3.78100300      0.11925712
C      -0.85198458     -5.11379675     -0.13558527
C       0.31671026     -5.59335435     -0.73042518
C       0.44561293     -6.95500476     -1.00626972
C      -0.59718265     -7.83074865     -0.70136277
C      -1.77285175     -7.34642954     -0.12656526
C      -1.90381024     -5.98517057      0.14989905
H       9.22987832      4.72927653      0.45747978
H      10.37678029      4.17322895     -0.76766886
H      10.22919634      3.29808041      0.76716071
H       8.05531456      3.54734100     -1.37912259
H       8.48624555      1.16960479     -1.87074084
H       9.70634075      1.08768342     -0.58665260
H       9.98656700      2.07895786     -2.02761147
H       7.21689509      3.43739612      0.98382430
H       8.07358877      1.91863619      1.22165840
H       5.87711532      2.37613285     -0.86874489
H       6.68722193      0.84074971     -0.53937975
H       5.08033203      2.41644997      1.53137318
H       5.80732295      0.83331688      1.78181076
H       3.58066522      1.48527401     -0.22513526
H       3.35957497      0.77092006      1.36791667
H       4.77522207     -1.20375129      0.65014826
H       4.91293927     -0.48861927     -0.95280774
H       2.41954436     -0.58547679     -1.22416824
H       3.20682469     -2.13907565     -1.08724871
H       1.66547388     -0.71528516      1.13943001
H       2.58926440     -2.23163626      1.35574136
H      -1.73273312     -1.80503462      3.26790726
H      -2.72101674     -2.66745185      2.05896314
H      -3.79214608     -0.56208252      2.88740711
H      -2.42382107      0.37304805      2.26299512
H      -4.24782899     -1.38104398      0.54160872
H      -2.91959031     -0.38163210     -0.05079003
H      -5.39806349      0.65709990      1.41073338
H      -4.07554998      1.66671598      0.82006850
H      -4.51027336      0.83782378     -1.51646215
H      -5.88046259     -0.09614178     -0.92713379
H      -5.59508920      2.94863245     -0.73937503
H      -6.48016513      2.08170387     -1.99071209
H      -7.96586892      1.07600431     -0.20450661
H      -7.13688560      2.04498645      1.00243262
H      -9.25119699      3.04046240      0.42552081
H      -9.45893746      2.17635921     -1.91519198
H      -8.29121685      3.39670745     -2.45850003
H      -9.83801580      3.89767864     -1.77084460
H      -8.56961908      5.33303384     -0.03053149
H      -7.03106590      4.80771274     -0.72384492
H      -7.35611934      4.56736471      1.00407586
H       1.11981536     -4.91071659     -0.99450625
H       1.35418380     -7.33037358     -1.46917145
H      -0.49775263     -8.88952982     -0.92434327
H      -2.58920791     -8.02745318      0.09884029
H      -2.82250925     -5.60366307      0.58573115
