23
CC(C)COC(=O)[C@H](C)Cl
C      -2.31477001      0.00467662     -1.20179071
C      -2.00811252      0.38242080      0.24907130
C      -3.15592840     -0.04252187      1.16235063
C      -0.68892542     -0.24111810      0.72165575
O       0.38478404      0.27285410     -0.07927275
C       1.61997455     -0.20551544      0.25397491
O       1.82818199     -1.03297362      1.13271437
C       2.68274092      0.41193658     -0.63695168
C       4.02394293     -0.29012846     -0.49317588
Cl      2.85569662      2.13691498     -0.21051838
H      -1.52934522      0.35840481     -1.87755558
H      -2.39971344     -1.08101165     -1.31936379
H      -3.25843915      0.45484723     -1.52804730
H      -1.91158821      1.47491690      0.29019331
H      -4.09607683      0.42308739      0.84828989
H      -2.96261321      0.26099780      2.19663916
H      -3.29447830     -1.12898207      1.14801217
H      -0.50798422      0.02306655      1.77061272
H      -0.72680248     -1.33322802      0.62593166
H       2.35036877      0.34626217     -1.67843039
H       4.40256303     -0.23408617      0.53374818
H       3.93302078     -1.35120924     -0.75037324
H       4.77350378      0.15259014     -1.15771433
