14
O=Nc1ccc(O)cc1
O       3.39833272     -0.60032597      0.11193001
N       2.73807633      0.34537604     -0.33458326
C       1.37303400      0.20507916     -0.17317096
C       0.58510131      1.36378662     -0.15519348
C      -0.80316876      1.28089425     -0.01122087
C      -1.40933419      0.03639246      0.10968597
O      -2.76401084      0.00252054      0.24788401
C      -0.65255021     -1.12961581      0.08680815
C       0.73684149     -1.04259925     -0.05765240
H       1.04977377      2.34275264     -0.25091891
H      -1.40678489      2.18438584      0.00550385
H      -3.05066070     -0.92246858      0.32650835
H      -1.11682369     -2.10682720      0.17655053
H       1.32217366     -1.95935073     -0.08213098
