31
O=C1CN(O)C(c2ccccc2Cl)=c2cc(Cl)ccc2=N1
O      -3.26497671      2.56722342     -0.37398972
C      -2.83341445      1.53893372     -0.88647873
C      -1.77277707      1.55289878     -1.96515445
N      -0.45999206      1.35515727     -1.36396283
O       0.55268637      1.88662387     -2.17512547
C      -0.13899434      0.41957956     -0.37662182
C       1.31649347      0.41365838     -0.02724717
C       2.17244631     -0.45965532     -0.72231322
C       3.53603453     -0.50452266     -0.42634998
C       4.06238758      0.32298601      0.56335335
C       3.22752766      1.20038292      1.25636381
C       1.86118591      1.24979588      0.96336920
Cl      0.88426730      2.35937409      1.85909921
C      -0.96009028     -0.45346790      0.27398643
C      -0.45765597     -1.40543604      1.28050049
C      -1.17117434     -2.46208673      1.68975146
Cl     -0.52877624     -3.56434432      2.84939979
C      -2.47808058     -2.72820862      1.15767992
C      -3.09430580     -1.85499258      0.35404918
C      -2.45699171     -0.55526022     -0.03354316
N      -3.28684615      0.29455432     -0.54977761
H      -1.82345913      2.52136627     -2.47642281
H      -1.98148845      0.77572535     -2.70900315
H       0.90619448      2.62081533     -1.63536647
H       1.77546940     -1.10084829     -1.50709447
H       4.18763809     -1.18242394     -0.97296886
H       5.12495019      0.28862674      0.79269517
H       3.64836617      1.84476229      2.02454012
H       0.53172400     -1.25921165      1.70226607
H      -2.97702685     -3.64970424      1.44261607
H      -4.10132136     -2.03230170     -0.00825034
