30
Cc1ccccc1N(O)C(=O)c1ccc(Cl)cc1Cl
C      -2.48148574     -1.93826672     -0.28819419
C      -2.66473418     -0.47358456      0.01476197
C      -3.99431955     -0.03258171      0.19460978
C      -4.28988201      1.30839362      0.41903770
C      -3.26011110      2.23358132      0.46941756
C      -1.93673366      1.81365073      0.30833622
C      -1.60253390      0.46277399      0.09068427
N      -0.22537966      0.09636154     -0.00956726
O       0.08412329     -1.26968149      0.18087619
C       0.84632428      0.92736787     -0.32615097
O       0.80309580      2.11384316     -0.64381046
C       2.19044384      0.31187703     -0.33476918
C       2.83622059      0.18376778     -1.57267511
C       4.11395535     -0.37401872     -1.63474303
C       4.74434320     -0.78893124     -0.46185297
Cl      6.31957392     -1.47640084     -0.54013314
C       4.11464172     -0.64609181      0.77485826
C       2.83519161     -0.08794815      0.84143606
Cl      2.11481049      0.09896940      2.40096009
H      -3.43459797     -2.41721432     -0.54055238
H      -1.83314170     -2.07750092     -1.15903229
H      -2.07705289     -2.46319281      0.58230679
H      -4.81861158     -0.74224319      0.14408627
H      -5.32050962      1.62809958      0.54680926
H      -3.47603465      3.28487791      0.64197575
H      -1.16912374      2.57886073      0.39102525
H       0.00290886     -1.33467889      1.15178099
H       2.34376791      0.51920733     -2.48342877
H       4.61175755     -0.47743183     -2.59605008
H       4.62309352     -0.96186478      1.68231660
