51
CS(=O)(=O)c1ccc(N2CCOCC2)c(C(=O)N2Cc3cc(C(F)(F)F)cnc3C2)c1
C      -4.53257819      4.29637555      0.60500618
S      -3.17877703      4.09999382      1.73393962
O      -3.70793984      4.18465616      3.08191925
O      -2.09135454      4.95769684      1.30481749
C      -2.64936498      2.42630419      1.46920602
C      -2.90223336      1.44768407      2.42778860
C      -2.46905399      0.13322946      2.20990219
C      -1.77472562     -0.23470433      1.04251215
N      -1.36145088     -1.55638098      0.80755909
C      -2.17308483     -2.25057540     -0.22713972
C      -1.47836588     -3.56394733     -0.62479789
O      -1.26202240     -4.41165482      0.51663083
C      -0.44640294     -3.73710712      1.48941131
C      -1.11428668     -2.43809843      1.97007027
C      -1.50672368      0.79633223      0.10978260
C      -0.75428729      0.55887808     -1.14051719
O      -1.36538336      0.63243997     -2.20435203
N       0.59952301      0.33188601     -1.06088851
C       1.39279131      0.14777581     -2.26966391
C       2.79136649      0.03804253     -1.76406959
C       3.97457559     -0.13645576     -2.45563692
C       5.16360503     -0.20488252     -1.71608293
C       6.50167588     -0.36435137     -2.37051392
F       6.42722786     -0.90730956     -3.61778264
F       7.15106853      0.82206546     -2.51766227
F       7.34573239     -1.16816887     -1.66649926
C       5.08716620     -0.08250936     -0.32507982
N       3.93556776      0.08799099      0.37005629
C       2.82011300      0.14470154     -0.37825274
C       1.42340209      0.33189271      0.15328892
C      -1.94346202      2.11384594      0.31127302
H      -4.17625382      4.14502177     -0.41508150
H      -4.91909255      5.31215609      0.71348166
H      -5.31252189      3.57473214      0.85458443
H      -3.43363534      1.68875188      3.34680701
H      -2.70721466     -0.60282382      2.97285442
H      -2.31368318     -1.64141101     -1.12469147
H      -3.16389408     -2.47377777      0.18853902
H      -0.51423497     -3.36768403     -1.10927556
H      -2.10419950     -4.11657268     -1.33182004
H       0.54069940     -3.53826872      1.05489811
H      -0.31040640     -4.41830197      2.33549815
H      -2.06312103     -2.69150759      2.45875888
H      -0.45676020     -1.94378186      2.69455306
H       1.26236645      1.01511097     -2.92422076
H       1.06541604     -0.76615005     -2.77472567
H       3.98056215     -0.21564552     -3.53947916
H       5.98382709     -0.11911554      0.29173433
H       1.14281332     -0.50247072      0.79946452
H       1.31275506      1.28787750      0.67266682
H      -1.71573950      2.87821541     -0.42877075
