29
CCCCSS(=O)CCCC
C      -4.59688496     -0.85847072     -1.16858326
C      -4.49696552     -1.04348119      0.33781918
C      -3.08144737     -0.83561247      0.88515236
C      -2.59239827      0.60479161      0.73439407
S      -0.98854104      0.86095197      1.55831109
S       0.32739593     -0.15243639      0.32714071
O      -0.13046285      0.35230861     -1.00839769
C       1.89587513      0.68044682      0.73438347
C       3.02799302      0.12933780     -0.12536958
C       4.35586593      0.80711637      0.21115459
C       5.49096304      0.26367351     -0.64191083
H      -4.40121246      0.17755535     -1.45982234
H      -5.60454601     -1.11388418     -1.51196416
H      -3.88645122     -1.50591301     -1.69219708
H      -4.81831759     -2.06233935      0.58522673
H      -5.19497452     -0.36135960      0.83696784
H      -2.39980874     -1.53001222      0.37986466
H      -3.08977786     -1.11142301      1.94747209
H      -2.51676295      0.89850430     -0.31609575
H      -3.30802105      1.28592888      1.20738382
H       1.77141619      1.75550564      0.56766884
H       2.10125594      0.50878938      1.79604478
H       3.11925640     -0.95353983      0.02718355
H       2.79848268      0.28003664     -1.18777339
H       4.27267593      1.88858647      0.05223419
H       4.59550544      0.65192599      1.26956600
H       5.62182684     -0.81135257     -0.48214456
H       5.29734505      0.43215472     -1.70608231
H       6.43071491      0.76221049     -0.38455339
