21
Nc1nc(=O)n(-c2ccccc2)[nH]1
N       4.00399788      0.40665382      0.44144875
C       2.85625476     -0.13743541     -0.01292285
N       2.75722684     -1.21055510     -0.72961499
C       1.39331802     -1.40306977     -0.88224478
O       0.90153945     -2.32779292     -1.51140071
N       0.73137853     -0.37976281     -0.20150854
C      -0.64483302     -0.09915716     -0.07924132
C      -1.08199316      1.07679734      0.55379514
C      -2.44510824      1.36104422      0.68783580
C      -3.39418154      0.47405989      0.19038108
C      -2.98013950     -0.69355775     -0.44294706
C      -1.61636264     -0.97679662     -0.57741527
N       1.69707999      0.48424097      0.35141322
H       4.03763414      1.41662336      0.35807615
H       4.81356004     -0.01980598     -0.00241059
H      -0.37316890      1.80419816      0.93881638
H      -2.76337170      2.27875849      1.17602051
H      -4.45404326      0.69294482      0.29142739
H      -3.71627416     -1.39038311     -0.83680148
H      -1.34264339     -1.90277903     -1.07638938
H       1.62012986      0.54577462      1.36368256
