24
Cc1cc(C)c(C)cc1C
C      -2.31523978      1.75177480      0.27861981
C      -1.13407218      0.83193538      0.13378849
C       0.16203976      1.37146465      0.13421892
C       1.29822779      0.55743641      0.00218521
C       2.66280972      1.18997388      0.00926934
C       1.13407225     -0.83193556     -0.13378547
C       2.31523979     -1.75177475     -0.27861949
C      -0.16203960     -1.37146494     -0.13421490
C      -1.29822758     -0.55743681     -0.00218015
C      -2.66280968     -1.18997375     -0.00927126
H      -2.00277524      2.79723684      0.37289635
H      -2.96304617      1.68035678     -0.60077545
H      -2.88751821      1.49752585      1.17636405
H       0.28920087      2.44772662      0.23954507
H       3.18105023      0.98698780     -0.93323374
H       3.25660055      0.80410451      0.84389825
H       2.60236312      2.27751723      0.12375876
H       2.96304030     -1.68036742      0.60078142
H       2.00277418     -2.79723542     -0.37291011
H       2.88752449     -1.49751632     -1.17635739
H      -0.28920083     -2.44772680     -0.23954272
H      -3.18106991     -0.98695860      0.93321482
H      -2.60236104     -2.27752099     -0.12372484
H      -3.25658283     -0.80412937     -0.84392497
