32
Cc1cc2c(cc1NNC1C(=O)NC(=O)NC1=O)=NC(=O)N=2
C       1.69528034     -2.52649173     -0.76366889
C       2.21082807     -1.16856068     -0.35014265
C       3.52460606     -1.04205193     -0.07639241
C       4.03395132      0.27342285      0.28639612
C       3.10439425      1.41781499      0.33272202
C       1.69480762      1.21006349      0.02559928
C       1.25439532     -0.02754411     -0.28958745
N      -0.08502881     -0.30495988     -0.58310757
N      -1.09205202      0.67616684     -0.35376381
C      -2.42067540      0.14538655     -0.77879266
C      -3.38757404      1.31710831     -0.80443709
O      -3.14651309      2.34891741     -1.43423202
N      -4.54369175      1.20403636     -0.08897177
C      -4.86431092      0.20168618      0.76921713
O      -5.87584070      0.24690104      1.46009840
N      -4.01077544     -0.85297265      0.82749250
C      -2.84176234     -0.99354859      0.13667673
O      -2.16697050     -2.01956508      0.26719869
N       3.74720513      2.47910062      0.66337341
C       5.05129400      2.02519139      0.82559437
O       5.97273195      2.75854326      1.14695588
N       5.21743102      0.66489448      0.59049434
H       2.50455307     -3.25784735     -0.87123597
H       1.00219724     -2.92324471     -0.01425619
H       1.18458685     -2.47246321     -1.73119818
H       4.23506795     -1.85799228     -0.11977027
H       1.05613658      2.08013290      0.08795262
H      -0.34509471     -1.25337635     -0.26853597
H      -0.90910428      1.49490968     -0.95083423
H      -2.37626679     -0.24639869     -1.80320670
H      -5.16102810      2.00479800     -0.09414063
H      -4.26277789     -1.60205710      1.45760257
