29
CNc1nc(NC(C)C)nc(OC)n1
C       3.91759537     -1.33148495      0.01145738
N       2.77569085     -1.54119151      0.87267609
C       1.73831136     -0.63168650      0.70018117
N       0.51691690     -1.12339572      0.86063186
C      -0.48437572     -0.26411543      0.71578021
N      -1.75127202     -0.79273086      0.90251293
C      -2.85618977     -0.19255896      0.16785898
C      -4.16256468     -0.66814294      0.80501193
C      -2.81318217     -0.59977608     -1.30491792
N      -0.32911193      1.01283422      0.41037349
C       0.92924702      1.40138150      0.27481547
O       1.08010712      2.73358273     -0.05274151
C       2.43451026      3.16375620     -0.03116101
N       2.00134135      0.62846765      0.39366073
H       4.42717141     -0.38855720      0.23779086
H       3.63202194     -1.34525812     -1.04625176
H       4.64042043     -2.13791956      0.17126803
H       2.35873938     -2.46467713      0.82523939
H      -1.67753448     -1.80240448      0.86092292
H      -2.83461520      0.90146903      0.24659644
H      -4.25666795     -1.75908728      0.75928718
H      -4.20752942     -0.37698168      1.86035216
H      -5.02750576     -0.22969200      0.29635146
H      -2.83219408     -1.68962697     -1.41793611
H      -1.90357666     -0.23376825     -1.79269866
H      -3.67027442     -0.18679534     -1.84726408
H       2.44727296      4.23668767     -0.24645114
H       3.02236633      2.66314084     -0.80842223
H       2.88488155      3.01853111      0.95717457
