27
OCc1cccc(Oc2ccccc2)c1
O      -3.85313959      1.80627264     -0.51181399
C      -2.94611321      1.62698699      0.56722521
C      -2.29470101      0.27289508      0.49243409
C      -2.96084397     -0.86062815      0.98073687
C      -2.37939840     -2.12546916      0.87541541
C      -1.12668407     -2.26941673      0.28103334
C      -0.45153073     -1.14711646     -0.19680832
O       0.76287862     -1.36242513     -0.80840121
C       1.79765776     -0.52040309     -0.46922779
C       2.57041012     -0.01277474     -1.51397918
C       3.65357352      0.82133031     -1.23562822
C       3.97138319      1.13344907      0.08673580
C       3.21214848      0.60628307      1.13226003
C       2.12816916     -0.22835119      0.85664963
C      -1.04070565      0.11821373     -0.11484888
H      -3.71764309      1.07510948     -1.13886863
H      -2.19688405      2.42460963      0.52642449
H      -3.49329809      1.74198995      1.50879864
H      -3.94391861     -0.76201442      1.43795242
H      -2.90584278     -2.99923028      1.25104650
H      -0.67580599     -3.25393815      0.19128593
H       2.32608169     -0.26329691     -2.54246843
H       4.25204095      1.22386957     -2.04868535
H       4.81711926      1.78139180      0.30321338
H       3.46886892      0.83988145      2.16225360
H       1.55338354     -0.65016141      1.67622971
H      -0.52720597      0.98294304     -0.52894856
