67
CC[N+](CC)(CC(=O)Nc1c(C)cccc1C)Cc1ccccc1.O=C([O-])c1ccccc1
C       0.70193261      3.90529944      0.45575834
C       0.93402130      2.96647569     -0.71666318
N       1.56546590      1.60512903     -0.32393884
C       2.94209343      1.77809097      0.34505820
C       3.95175493      2.56860758     -0.47133149
C       0.66214603      0.83773303      0.72025263
C      -0.76722817      0.47156921      0.29477559
O      -1.26821117      0.93008089     -0.72662514
N      -1.36553336     -0.43554869      1.15778963
C      -2.68628091     -0.94060857      1.02206522
C      -2.88696275     -2.31959032      1.28527044
C      -1.76900751     -3.24405619      1.69416771
C      -4.16810525     -2.87589992      1.13707480
C      -5.24273455     -2.08893181      0.74448014
C      -5.05733348     -0.72838843      0.52975368
C      -3.79476700     -0.12850719      0.69636514
C      -3.75090923      1.37016528      0.56084959
C       1.65639545      0.76839448     -1.64495010
C       2.00840200     -0.69458852     -1.51333081
C       0.99793801     -1.67109584     -1.55990483
C       1.30631538     -3.02531110     -1.42357255
C       2.62824075     -3.42457767     -1.25166983
C       3.64423418     -2.47269436     -1.23258990
C       3.33863147     -1.11705439     -1.37084077
O       3.08269496     -0.79442059     -0.16660665
C       2.38562710      0.23334756      0.10924407
O       2.84287070      1.37404143      0.43792149
C       0.87711321      0.08578833      0.04020563
C       0.28677934     -1.13859690     -0.31443850
C      -1.10222424     -1.27575047     -0.37843365
C      -1.92416583     -0.18823008     -0.08810685
C      -1.35777198      1.03509673      0.26577245
C       0.03150020      1.16971517      0.32906645
H       1.62400508      4.13852326      0.99371428
H      -0.02938229      3.50661821      1.16370520
H       0.29919653      4.85396898      0.08418989
H      -0.00936665      2.77866939     -1.23361606
H       1.60242431      3.43065935     -1.44943584
H       2.77623826      2.27472937      1.30726165
H       3.32959380      0.78039774      0.57032949
H       4.90338516      2.60455144      0.07045523
H       4.15572702      2.11629208     -1.44419617
H       3.63750832      3.60429774     -0.62521365
H       0.60927976      1.46351008      1.61678883
H       1.20518691     -0.07639979      0.98555539
H      -0.73736336     -1.03479152      1.67950030
H      -0.96895404     -3.22856720      0.94752298
H      -1.36997274     -2.94674007      2.66918710
H      -2.11028013     -4.28118825      1.78155134
H      -4.33816448     -3.93574211      1.31940535
H      -6.22919179     -2.53061845      0.62405475
H      -5.91966109     -0.12235859      0.25444176
H      -4.67988127      1.81560744      0.93627127
H      -3.63969671      1.65820248     -0.48825134
H      -2.94864131      1.81105776      1.15947631
H       0.69285109      0.86469028     -2.15772698
H       2.37989861      1.26994256     -2.29671654
H      -0.04339495     -1.39633893     -1.73048938
H       0.51699857     -3.77324205     -1.47298449
H       2.87034287     -4.48152638     -1.15899918
H       4.67938260     -2.79284736     -1.12812157
H       4.16143383     -0.40605009     -1.38590359
H       0.92951180     -1.98791969     -0.54120773
H      -1.53393951     -2.23234952     -0.65499583
H      -3.00305540     -0.29376167     -0.13748822
H      -1.98949877      1.88771474      0.49359268
H       0.47455843      2.12532497      0.60547465
