30
CNCC(O)C(O)C(O)C(O)CO
C       2.76722667      1.59912158     -0.27159006
N       2.58978320      0.49417459      0.66311812
C       2.31993949     -0.78008167     -0.00903835
C       0.89024342     -0.91096652     -0.57971673
O       0.78175846     -2.14752076     -1.30643255
C      -0.18310459     -0.92860817      0.52621000
O      -0.08467131     -2.16810645      1.26790656
C      -1.62522043     -0.87206114     -0.01239465
O      -2.53743326     -0.94400093      1.10752090
C      -1.98339479      0.37662631     -0.82980651
O      -3.38661315      0.31861494     -1.16660879
C      -1.75569283      1.69973313     -0.09161113
O      -2.11946558      2.77998034     -0.95528084
H       3.01451486      2.50750461      0.28686966
H       3.58481125      1.40461030     -0.97310542
H       1.85205039      1.80607202     -0.83348339
H       3.44318288      0.39859889      1.21678216
H       2.48312973     -1.59107305      0.71200492
H       3.05798801     -0.95913713     -0.80166401
H       0.70414357     -0.10055910     -1.28981968
H       1.41370922     -2.10429879     -2.04749367
H      -0.02940509     -0.12513177      1.25335539
H       0.11082542     -2.85016427      0.59151213
H      -1.84407766     -1.76738701     -0.60706271
H      -2.13797953     -1.60719776      1.71017746
H      -1.44547404      0.38927180     -1.78301242
H      -3.81971074     -0.04040707     -0.36271731
H      -2.38109855      1.77467417      0.80346913
H      -0.70892731      1.83852721      0.18909973
H      -2.97103773      2.50919171     -1.35486712
