58
CCCCCCCCCCNC(=O)OCC1OC(O)C(O)C(O)C1O
C       7.02149637      2.60635275      1.71533629
C       7.39270544      1.88647631      0.42703342
C       7.43548679      0.36274520      0.57453575
C       6.15170645     -0.36010202      0.14937823
C       4.93288774     -0.02853454      1.01011769
C       3.73810057     -0.95247915      0.75078921
C       3.16853206     -0.82689717     -0.66406881
C       1.90950944     -1.68128073     -0.83157989
C       1.34008924     -1.55996169     -2.24814343
C       0.10602095     -2.43681346     -2.45996038
N      -1.01412448     -2.02459473     -1.64775912
C      -1.84594659     -1.00587241     -1.99440271
O      -1.79732416     -0.36686692     -3.03393061
O      -2.73311264     -0.80029119     -0.99180246
C      -3.68447099      0.24457706     -1.26210654
C      -4.58483133      0.42349826     -0.03597676
O      -5.43737548     -0.73680175      0.06340470
C      -6.23874737     -0.69485101      1.23169472
O      -7.04148996     -1.86985755      1.26101627
C      -7.17843632      0.52202928      1.23920967
O      -7.90924052      0.57908568      2.47879496
C      -6.37383925      1.81257359      1.07220097
O      -5.62066644      2.06192891      2.26882552
C      -5.42838690      1.71575510     -0.13082829
O      -6.21958906      1.74423392     -1.32352065
H       7.04643083      3.68974071      1.55955779
H       6.01945435      2.34232448      2.06007117
H       7.73095419      2.36666344      2.51392124
H       6.71160930      2.18175158     -0.37888905
H       8.39198921      2.23264478      0.13496490
H       8.23982177     -0.01311259     -0.07113445
H       7.70688247      0.07825961      1.59803935
H       5.94283200     -0.12384261     -0.90054818
H       6.34154484     -1.43969691      0.19660489
H       5.20463709     -0.11174947      2.06932336
H       4.62311910      1.00767002      0.83505896
H       2.95318841     -0.70682415      1.47698305
H       4.02938929     -1.99260472      0.94147147
H       3.91695260     -1.14324741     -1.39921073
H       2.92959689      0.22279176     -0.87278432
H       2.14756129     -2.73084048     -0.62046312
H       1.15762491     -1.36578362     -0.09865127
H       2.10800813     -1.85988926     -2.97146382
H       1.09456855     -0.51143717     -2.45609176
H       0.32440582     -3.48098247     -2.21342352
H      -0.19359156     -2.39291955     -3.51304098
H      -1.14730648     -2.41040583     -0.72387795
H      -3.14235454      1.17525815     -1.46636526
H      -4.27940327     -0.04701705     -2.13563217
H      -3.95126271      0.44845409      0.86064211
H      -5.60810077     -0.71739744      2.12878872
H      -6.40239398     -2.59011513      1.12497555
H      -7.91103633      0.43274654      0.42785052
H      -8.33482255     -0.29948636      2.55153056
H      -7.06417392      2.65575248      0.95153261
H      -6.27841265      1.97971867      2.99173846
H      -4.76266638      2.58701568     -0.14483965
H      -5.63399947      1.92250844     -2.08001825
