28
CNC(=O)ON=C1C(Cl)C2CC(C#N)C1C2
C       5.11310917     -0.07453387     -0.46926021
N       3.72071006     -0.29507625     -0.18699863
C       2.79181357      0.70085666     -0.34802537
O       3.03410290      1.79224838     -0.84665030
O       1.57557045      0.27526470      0.13099173
N       0.62426458      1.30993805      0.05701419
C      -0.56195354      0.87072595      0.32368765
C      -1.79680537      1.74527054      0.27050801
Cl     -1.77387623      2.89870021      1.61086970
C      -2.85892656      0.63605387      0.46902504
C      -2.90277604     -0.27049986     -0.78689887
C      -1.56614356     -1.05651263     -0.71834700
C      -1.77836966     -2.51024085     -0.70499005
N      -1.94284582     -3.65800128     -0.68217128
C      -0.96477015     -0.56366448      0.61116832
C      -2.19807960     -0.30668736      1.48142413
H       5.60287176     -1.04421620     -0.58362025
H       5.55824635      0.46794595      0.36898220
H       5.22881705      0.51253250     -1.38430076
H       3.44102374     -1.08404559      0.37746585
H      -1.88423205      2.27247035     -0.68286372
H      -3.84354761      1.01141097      0.75805401
H      -3.77314245     -0.93647359     -0.74387141
H      -2.97515620      0.31986069     -1.70682801
H      -0.92955239     -0.79163817     -1.57159843
H      -0.19266799     -1.18401304      1.06631557
H      -1.96000608      0.17179120      2.43668411
H      -2.78767836     -1.20946686      1.67313484
