19
Cn1c(=O)c2n[se]nc2n(C)c1=O
C       2.66695939     -0.68977766     -0.28031557
N       1.30524257     -0.14151199     -0.14207316
C       1.09617726      1.15194147     -0.12612779
O       2.09038155      1.92509699     -0.23294553
C      -0.21704361      1.76091525      0.00766477
N      -0.23213370      3.06279287      0.00371161
Se     -2.63672421      2.98882648      0.25476059
N      -2.43081046      1.40821950      0.23991592
C      -1.19562147      0.89611719      0.11325237
N      -0.97719674     -0.47440187      0.09654189
C      -2.08872603     -1.38096359      0.21259473
C       0.26172065     -0.97135298     -0.02996334
O       0.49246868     -2.20923487     -0.04842490
H       2.78669230     -1.21349569     -1.22823015
H       3.42315916      0.10536477     -0.19172710
H       2.85052355     -1.38740216      0.57246902
H      -3.04391581     -0.88751898     -0.01201097
H      -2.13532264     -1.70480227      1.27731310
H      -2.01583043     -2.23881247     -0.48640549
