33
CN1CCOc2cc(C#Cc3ccccc3)cnc21
C      -4.92878025     -0.73992961     -1.00410345
N      -4.28289012     -0.01608491      0.07942016
C      -4.81630920      1.29717480      0.42739799
C      -4.10320916      1.80694497      1.67800721
O      -2.69982904      1.99257830      1.45231678
C      -2.13887430      0.95875813      0.73736066
C      -0.74528597      0.94520102      0.69124185
C      -0.10243973     -0.05285720     -0.02768740
C       1.32254492     -0.10971347     -0.09626015
C       2.52154909     -0.15812967     -0.15391418
C       3.94893934     -0.21644287     -0.22216384
C       4.63037966      0.47477939     -1.22670786
C       6.02396983      0.41689029     -1.29288996
C       6.73656464     -0.33125156     -0.35582264
C       6.05777014     -1.02198573      0.64802597
C       4.66421425     -0.96505183      0.71550043
C      -0.88911327     -0.99127796     -0.67733761
N      -2.24527971     -0.99495475     -0.66022621
C      -2.87548907     -0.02251063      0.03936843
H      -4.67711642     -0.30922466     -1.98010600
H      -4.65733181     -1.80156786     -0.99642802
H      -6.01761833     -0.69465207     -0.88960918
H      -4.67442465      1.99459275     -0.40844182
H      -5.89076397      1.22083559      0.62814943
H      -4.51762633      2.77726636      1.97065295
H      -4.23480515      1.12068255      2.52410051
H      -0.17935521      1.70786367      1.21759014
H       4.08270982      1.06049187     -1.96099579
H       6.55306993      0.95524137     -2.07497503
H       7.82152035     -0.37592605     -0.40778000
H       6.61312608     -1.60481908      1.37832412
H       4.14299206     -1.50630483      1.50140824
H      -0.44280843     -1.79766405     -1.25341572
