16
O=[N+]([O-])c1ccccc1[N+](=O)[O-]
O      -2.13087566      1.36780782     -1.39763233
N      -1.34446123      1.69722131     -0.50168775
O      -1.33862507      2.77870544      0.09882376
C      -0.29531340      0.75382684     -0.17198651
C       1.03092709      1.20598858     -0.19589885
C       2.06686384      0.29905179      0.04188360
C       1.78319551     -1.04665490      0.29637869
C       0.46040397     -1.49557466      0.32692610
C      -0.57859293     -0.58413197      0.09520649
N      -1.94244086     -1.05897194      0.21290392
O      -2.23793112     -2.08420927     -0.41305899
O      -2.68873496     -0.43193957      0.97418835
H       1.26490580      2.24843437     -0.40655306
H       3.10121361      0.63946869      0.02330585
H       2.59807577     -1.74615437      0.47742792
H       0.25138963     -2.54286818      0.53977280
