36
CN1CC2c3ccccc3Oc3ccc(Cl)cc3C2C1
C      -3.70612424     -1.50674015      0.85658753
N      -2.77512339     -0.96207676     -0.12211021
C      -1.54930309     -1.76123594     -0.22477930
C      -0.58411100     -0.84191189     -0.99541881
C       0.85357288     -1.21918202     -0.73548667
C       1.51131925     -2.08786772     -1.62253901
C       2.81831413     -2.51432531     -1.37256496
C       3.48442411     -2.09159074     -0.22475818
C       2.84581426     -1.23568839      0.66897762
C       1.54724054     -0.79419700      0.40261741
O       0.96193097      0.04011543      1.32513089
C       0.80787110      1.32309724      0.85718721
C       1.60964223      2.31578577      1.42794152
C       1.48784685      3.63679895      1.00122307
C       0.55501419      3.95634140      0.01819160
Cl      0.39471957      5.58702397     -0.50764746
C      -0.26098656      2.96703616     -0.53552206
C      -0.14568382      1.62859863     -0.12070543
C      -1.08999077      0.59268239     -0.67976378
C      -2.29533540      0.37207266      0.25218089
H      -4.60307473     -0.88087502      0.91716086
H      -4.03400124     -2.50703555      0.55360735
H      -3.26945494     -1.57805879      1.85933575
H      -1.72416335     -2.69717667     -0.76716769
H      -1.15299089     -2.01273587      0.76839789
H      -0.77399448     -0.99077563     -2.06990739
H       1.00447860     -2.44837914     -2.51574286
H       3.31226852     -3.18534201     -2.07103590
H       4.49765229     -2.43013498     -0.02593287
H       3.35872642     -0.90617599      1.56785003
H       2.33181740      2.05591608      2.19690853
H       2.11722658      4.40703407      1.43793641
H      -0.99641576      3.24323567     -1.28837687
H      -1.47921315      0.98333546     -1.63304532
H      -1.99486542      0.40683051      1.30818482
H      -3.06504766      1.13560119      0.09308538
