32
O=C1CCOc2nc(/C=C/c3ccccc3)ccc21
O      -5.48904439      1.38214963     -0.25795531
C      -4.73767410      0.42233904     -0.12341752
C      -5.23698208     -0.96293443      0.17740026
C      -4.23701058     -1.95984520     -0.37120253
O      -2.94826663     -1.77050424      0.21344688
C      -2.45660249     -0.51003746     -0.01454048
N      -1.10950761     -0.43488795     -0.02107691
C      -0.54727679      0.77947799     -0.23498187
C       0.92114886      0.85644781     -0.24897240
C       1.72651883     -0.20076420     -0.05124699
C       3.19351987     -0.12483973     -0.04982942
C       3.90347557      0.65720996     -0.97036932
C       5.30063659      0.68124481     -0.95359881
C       6.00126465     -0.08383640     -0.02341864
C       5.30647462     -0.87805202      0.88621901
C       3.90970229     -0.90275891      0.86887651
C      -1.30553400      1.93124364     -0.43807674
C      -2.69550131      1.83648973     -0.41562159
C      -3.27827357      0.59214433     -0.19573096
H      -6.21170639     -1.10858651     -0.29780775
H      -5.33987731     -1.05686966      1.26352396
H      -4.15531331     -1.89997429     -1.46482558
H      -4.56057491     -2.97734320     -0.12741165
H       1.34394684      1.84213120     -0.41675724
H       1.30465907     -1.18468224      0.14726074
H       3.37840142      1.24481125     -1.71892184
H       5.84096531      1.29229256     -1.67180092
H       7.08785473     -0.06628747     -0.01156842
H       5.84996503     -1.48097570      1.60888521
H       3.38339084     -1.52974380      1.58545881
H      -0.83197706      2.89373768     -0.60504986
H      -3.31080200      2.72120377     -0.55874673
