8
FC(F)(Cl)C(F)(Cl)Cl
F      -1.31294775     -0.15098482      1.26133588
C      -0.73400519     -0.29917253      0.03507781
F      -0.77886677     -1.63631715     -0.23114699
Cl     -1.76221599      0.53708541     -1.16510232
C       0.73139653      0.19356703      0.06908674
F       1.42192258     -0.51057287      1.01696726
Cl      1.57584801     -0.06380867     -1.49490225
Cl      0.85886858      1.93020361      0.50868389
