35
O=C(O)c1ccccc1C(=O)Nc1cccc2ccccc12
O      -1.25851035     -1.60572217      1.08666603
C      -2.25535295     -1.65267830      0.39266926
O      -2.78015618     -2.79602575     -0.07083294
C      -3.04397487     -0.48952123     -0.02216292
C      -4.39580362     -0.45798423      0.36097646
C      -5.19869443      0.62956632      0.01839509
C      -4.65953613      1.68507140     -0.71161670
C      -3.31779796      1.65224040     -1.09922893
C      -2.48925767      0.57027812     -0.74910700
C      -1.09818845      0.61377552     -1.28274358
O      -0.97661437      0.98491719     -2.44583038
N      -0.08085606      0.29302638     -0.40489263
C       1.32482544      0.32182540     -0.64156118
C       1.84202450      0.67420033     -1.89578295
C       3.21424809      0.69510609     -2.13123657
C       4.09852492      0.36485459     -1.11346528
C       3.62775571      0.01237669      0.15615658
C       4.55514634     -0.31013318      1.16178056
C       4.13709960     -0.66053367      2.44197561
C       2.78276617     -0.69047627      2.73245842
C       1.84798131     -0.37213345      1.74151913
C       2.23054294     -0.01472401      0.42057940
H      -2.16951912     -3.50217164      0.22905435
H      -4.82554056     -1.28330177      0.92545090
H      -6.24525812      0.65006421      0.31385682
H      -5.28394743      2.53048096     -0.99229986
H      -2.91565914      2.47467023     -1.69059148
H      -0.35997526     -0.04157879      0.51073446
H       1.19970979      0.93643546     -2.72923641
H       3.58921805      0.96910413     -3.11392010
H       5.16593167      0.38802140     -1.32258350
H       5.62291396     -0.28901363      0.95230731
H       4.86784762     -0.90684572      3.20717226
H       2.44373512     -0.96126573      3.72902088
H       0.80437145     -0.41190529      2.03631890
