36
CCN1c2ncccc2C(=O)Nc2c(C)cc(C)nc21
C       0.17815086     -2.91899158      1.58383836
C       1.04632465     -2.23839870      0.52458261
N       0.84392213     -0.77469175      0.52155665
C       2.01369110     -0.05304488      0.19846557
N       3.04451184     -0.71554403     -0.40535895
C       4.18030377     -0.04988726     -0.70755740
C       4.37698056      1.28317344     -0.42800947
C       3.34231049      1.96270910      0.19663423
C       2.14199338      1.29757334      0.50809496
C       1.11936852      2.08128696      1.21800975
O       1.47656726      3.01890267      1.93512690
N      -0.21981013      1.90431447      1.01034844
C      -0.91947276      0.92575056      0.28103573
C      -2.23289321      1.24117613     -0.13463335
C      -2.86643879      2.58176871      0.12623442
C      -2.97603981      0.27957601     -0.82389918
C      -2.40954149     -0.95730674     -1.07177782
C      -3.17807216     -2.00976039     -1.81182587
N      -1.16725029     -1.27716254     -0.65500974
C      -0.41634390     -0.36400398      0.01969742
H      -0.89111211     -2.83033364      1.37389974
H       0.41728055     -3.98630563      1.63340935
H       0.36109860     -2.48370133      2.57222976
H       2.07592501     -2.49145720      0.81244178
H       0.88510914     -2.68131755     -0.46687559
H       4.95006218     -0.64398185     -1.19171143
H       5.30773947      1.77849368     -0.67853568
H       3.46741801      3.01386174      0.44947292
H      -0.74944924      2.67333159      1.39858419
H      -2.23695355      3.38608410     -0.26825904
H      -3.84351084      2.66834174     -0.36141742
H      -3.01949326      2.72594414      1.20051574
H      -3.98493054      0.49166452     -1.16572209
H      -4.08680421     -2.27167398     -1.26106102
H      -2.57857128     -2.91793707     -1.93215923
H      -3.45206995     -1.64845280     -2.80789686
