29
CCc1cccc2c(CCO)c[nH]c12
C      -3.96064039      0.02772775      0.43077678
C      -3.10414436      0.10424410     -0.82373399
C      -1.73718134     -0.49134260     -0.60211244
C      -1.51135695     -1.85406158     -0.87388287
C      -0.26820747     -2.44793677     -0.66929212
C       0.80323239     -1.69968766     -0.17714118
C       0.61934598     -0.33354742      0.11581327
C       1.48218550      0.69608393      0.61569539
C       2.93022826      0.55898352      0.98080273
C       3.86425033      0.88011593     -0.18609994
O       3.82709903     -0.14081366     -1.18008099
C       0.72344118      1.84631064      0.69927931
N      -0.54342577      1.55625895      0.27276059
C      -0.63807653      0.23344833     -0.10006570
H      -3.49937438      0.57207410      1.26174672
H      -4.10638720     -1.01005571      0.74928303
H      -4.94575253      0.46659441      0.24358015
H      -3.00384805      1.14986575     -1.13747687
H      -3.60682444     -0.41440365     -1.64895245
H      -2.32611104     -2.46855530     -1.25376424
H      -0.12923295     -3.50295681     -0.89166895
H       1.76867884     -2.17304170     -0.02050578
H       3.15023550      1.23932684      1.81257605
H       3.11951438     -0.46018113      1.33806602
H       3.61604705      1.83617262     -0.65925615
H       4.89570091      0.93956197      0.17522308
H       2.91184548     -0.17048284     -1.51537970
H       0.97702466      2.84537849      1.02838801
H      -1.30826608      2.21491950      0.23347079
