15
Nc1ncnc2nc[nH]c12
N      -0.87396232      2.18645882     -0.00339491
C      -0.83623965      0.80440588      0.08757360
N      -1.99065371      0.14018807      0.25398392
C      -1.95030422     -1.20858959      0.32362455
N      -0.88134114     -2.01128613      0.24077173
C       0.26353184     -1.32439422      0.08479669
N       1.51485842     -1.87214249     -0.01790474
C       2.32681008     -0.84478164     -0.13457748
N       1.64720820      0.34253909     -0.12025969
C       0.31752605      0.05507395      0.00747999
H      -0.24850279      2.58187576     -0.69101210
H      -1.84052801      2.48629333     -0.09917685
H      -2.90691787     -1.70370809      0.46134170
H       3.40392575     -0.89725710     -0.22679167
H       2.05458937      1.26532435     -0.16645473
