86
CC(=O)Oc1c(C)c(C)c2c(c1C)CC[C@@](C)(CCC[C@H](C)CCC[C@H](C)CCCC(C)C)O2
C      -6.76555852      4.15274457     -1.42237881
C      -5.97383606      3.04575047     -0.79209650
O      -4.99070024      3.22006372     -0.08581016
O      -6.53384469      1.82885426     -1.17154870
C      -5.87086430      0.70629580     -0.64769698
C      -6.20208326      0.25847878      0.64492936
C      -7.22279011      0.99385864      1.47388047
C      -5.51927119     -0.86464590      1.16070634
C      -5.77638360     -1.34891644      2.56750390
C      -4.62722662     -1.57605592      0.32850985
C      -4.36092352     -1.15735953     -0.98820828
C      -4.96163107      0.02447732     -1.47704452
C      -4.68106187      0.50625214     -2.87643968
C      -3.42237387     -1.95919474     -1.85388102
C      -3.25699322     -3.36989045     -1.31871150
C      -2.99109845     -3.35244566      0.18922292
C      -3.01290896     -4.80350613      0.70365075
C      -1.67062375     -2.65676444      0.61269711
C      -0.39677586     -3.21828131     -0.02579715
C       0.88854917     -2.66403509      0.60082989
C       1.07362971     -1.13025803      0.55108409
C       1.08628610     -0.60621199     -0.88758560
C       2.36894552     -0.77437136      1.31383359
C       2.69612541      0.72228373      1.34111026
C       3.85201166      1.00457485      2.30885586
C       4.43606752      2.42971593      2.24007026
C       3.39601242      3.48226127      2.63646893
C       5.06156064      2.80107270      0.87887963
C       6.10964872      1.79502431      0.38885337
C       6.83460157      2.30406314     -0.86257456
C       7.81194182      1.29946505     -1.50392334
C       7.08474991      0.10776754     -2.12911374
C       8.88647663      0.81844336     -0.52935833
O      -4.07458318     -2.70450252      0.88245826
H      -6.58246760      4.16705695     -2.50206577
H      -6.45320489      5.11122767     -0.99591340
H      -7.83151004      4.01610965     -1.21489543
H      -7.84190733      0.29279780      2.04347610
H      -7.91758091      1.57208260      0.85740210
H      -6.72045594      1.67608912      2.16612574
H      -5.97079609     -0.51432768      3.24718965
H      -6.63543487     -2.02624805      2.57695437
H      -4.90847649     -1.86813623      2.98593857
H      -5.00847757      1.53730612     -3.03870776
H      -3.60560669      0.49155512     -3.07913331
H      -5.20089369     -0.12972818     -3.60008381
H      -3.81263472     -2.03264762     -2.87529980
H      -2.45337131     -1.45077906     -1.90102718
H      -2.46844640     -3.89481361     -1.86854324
H      -4.19072324     -3.91601763     -1.51151071
H      -2.29519184     -5.44324915      0.17966358
H      -4.00928879     -5.24478389      0.57926254
H      -2.79547662     -4.84162063      1.77749096
H      -1.73859037     -1.58451818      0.40167494
H      -1.58372809     -2.71699854      1.70544380
H      -0.36841029     -4.30676076      0.09608317
H      -0.39569322     -3.03238125     -1.10401139
H       0.92258895     -2.99153535      1.64954694
H       1.74084935     -3.14704845      0.10453302
H       0.23757904     -0.65458079      1.07918296
H       1.95154001     -0.98582839     -1.43843079
H       1.12317929      0.48648668     -0.91006917
H       0.18305936     -0.89557185     -1.43158286
H       2.27791491     -1.13657027      2.34680349
H       3.21579898     -1.31041503      0.86581745
H       2.96538953      1.04863640      0.33181697
H       1.80919486      1.28927726      1.64807463
H       3.50156734      0.82066569      3.33377165
H       4.65665896      0.27823820      2.13881957
H       5.23870478      2.47425392      2.98981455
H       2.59512552      3.55810926      1.89286791
H       3.86265453      4.47032590      2.72581728
H       2.94527807      3.23999137      3.60511696
H       4.27941484      2.90755494      0.11861031
H       5.53246410      3.78799995      0.97223746
H       5.62182303      0.84271065      0.16446362
H       6.83510818      1.61471799      1.18910567
H       7.39159454      3.21269933     -0.60090373
H       6.09334966      2.60435421     -1.61436995
H       8.32141591      1.82911826     -2.31959709
H       6.59041244     -0.51460632     -1.37806274
H       6.32869216      0.44645204     -2.84578604
H       7.79131031     -0.52922739     -2.67174022
H       9.63965690      0.21988076     -1.05401105
H       8.46265542      0.19125124      0.26058437
H       9.39831153      1.66643712     -0.06055135
