48
COc1ccc(N=Nc2ccc(N=Nc3cccc(S(=O)(=O)[O-])c3)cc2OC)cc1.[Na+]
C      -9.46694718      0.17853423      0.63220334
O      -8.49214319      0.90174002     -0.10811234
C      -7.19885578      0.46646744     -0.01616458
C      -6.75229427     -0.63013809      0.72253944
C      -5.39257515     -0.96645281      0.72771937
C      -4.46342376     -0.21038345      0.00677887
N      -3.11040333     -0.59289655      0.00784101
N      -2.40109156      0.31525861      0.49708510
C      -1.03871926     -0.04440923      0.44066286
C      -0.54101674     -1.03469625      1.30219163
C       0.80957661     -1.38489227      1.27922059
C       1.68808254     -0.73956396      0.40737980
N       3.03999071     -1.12293600      0.37288649
N       3.75953226     -0.19556555      0.80681594
C       5.12095307     -0.52510261      0.67360322
C       5.70995804     -1.53103973      1.45812547
C       7.07012119     -1.83141866      1.33736935
C       7.85563956     -1.11935320      0.43385345
C       7.27186254     -0.11053998     -0.33903867
S       8.31823025      0.80242156     -1.49805259
O       8.77883680     -0.25871379     -2.38864811
O       7.40131612      1.76800700     -2.09831598
O       9.32884496      1.36978484     -0.61029125
C       5.91419076      0.19423382     -0.22157574
C       1.19630784      0.25171240     -0.45586792
C      -0.15586157      0.61441581     -0.43908182
O      -0.71166685      1.58328547     -1.24015807
C       0.17190897      2.31660506     -2.08005469
C      -4.91983709      0.87995390     -0.74205719
C      -6.27617459      1.21729298     -0.74892112
Na      0.00000000      0.00000000      0.00000000
H      -9.26002546      0.22199351      1.70677831
H      -9.53827014     -0.85733255      0.28409071
H     -10.43733227      0.65449968      0.46101579
H      -7.43033462     -1.24621532      1.30315686
H      -5.05084983     -1.82423289      1.30131642
H      -1.21678010     -1.53410663      1.99099956
H       1.18370889     -2.15838060      1.94423335
H       5.09804782     -2.08226694      2.16639368
H       7.51622770     -2.61338725      1.94428140
H       8.91627879     -1.33108663      0.31948530
H       5.48057169      0.98475893     -0.82697730
H       1.90714939      0.72113885     -1.12917533
H      -0.42064332      3.06691729     -2.61237099
H       0.92859800      2.84681465     -1.49247369
H       0.63347183      1.66520984     -2.82947269
H      -4.21092438      1.46854733     -1.31994488
H      -6.61323590      2.07124745     -1.33127237
