19
Cc1cc([N+](=O)[O-])ccc1N
C      -1.85978321     -1.37355258      0.60816538
C      -0.70870715     -0.48644686      0.21616150
C       0.56784479     -1.05684943      0.05946645
C       1.66476432     -0.24932408     -0.26610063
N       2.99419499     -0.85207196     -0.42286766
O       3.93885645     -0.10070978     -0.70504712
O       3.09490499     -2.07767864     -0.26734704
C       1.50544950      1.12880914     -0.42511663
C       0.23605045      1.69125203     -0.27335269
C      -0.88611971      0.89351280     -0.00447060
N      -2.11183573      1.52327887      0.25162650
H      -1.53319406     -2.40372912      0.78581044
H      -2.32120172     -1.01302343      1.53319737
H      -2.60841842     -1.39589588     -0.19020530
H       0.69784997     -2.12775211      0.20747618
H       2.34898191      1.77676848     -0.65206285
H       0.12632982      2.76950391     -0.36843485
H      -2.22094170      2.42284700     -0.20662723
H      -2.92502548      0.93106165      0.11972879
