19
CCCC(N)C(=O)O
C       2.39387090      1.19495191      0.56161056
C       1.45701487      0.19473926     -0.09856111
C       0.05553501      0.25463487      0.51385150
C      -0.89925265     -0.80026397     -0.05664403
N      -1.14838302     -0.61015446     -1.51807309
C      -2.25745633     -0.75540954      0.67138453
O      -2.41678948     -0.65153695      1.87656672
O      -3.28535568     -0.87311517     -0.21165229
H       2.49586595      0.99017164      1.63212064
H       3.38879453      1.13792416      0.10903525
H       2.02343848      2.21792860      0.44063934
H       1.41462437      0.40981550     -1.17187923
H       1.87007271     -0.81400766      0.01671777
H      -0.36703985      1.25829768      0.37244217
H       0.13673817      0.11235904      1.59943072
H      -0.49938786     -1.81004739      0.09068087
H      -1.19364051      0.39804411     -1.70448957
H      -0.30935391     -0.91662880     -2.01936132
H      -2.85929570     -0.93770284     -1.10381943
