28
Cc1cn(Cc2ccccc2)c(=O)[nH]c1=O
C      -3.24256759      1.14005949      1.64257254
C      -2.53411808      0.31063901      0.62352857
C      -1.42956856      0.69194525     -0.02903447
N      -0.80279125     -0.11153796     -0.96189028
C       0.41828883      0.36286137     -1.61562822
C       1.63534732      0.24123516     -0.72652045
C       2.19863188      1.37438735     -0.12164747
C       3.31545285      1.25276551      0.70723486
C       3.87903223     -0.00020666      0.94088072
C       3.32771410     -1.13326728      0.34625738
C       2.21158808     -1.01431053     -0.48287877
C      -1.27645783     -1.37881318     -1.27048589
O      -0.74985606     -2.14162398     -2.07777245
N      -2.41192301     -1.76160086     -0.60735080
C      -3.09146605     -1.02824947      0.32103989
O      -4.10265411     -1.44951734      0.87209891
H      -2.74836129      2.10545446      1.79490678
H      -4.27175247      1.33994350      1.32701257
H      -3.26781988      0.62405009      2.60790739
H      -0.97581186      1.66103840      0.15981192
H       0.59857443     -0.19514003     -2.54259590
H       0.26420121      1.40615502     -1.92049226
H       1.77363015      2.36068094     -0.29201222
H       3.74727618      2.13579337      1.17126736
H       4.74852465     -0.09433959      1.58616427
H       3.76608052     -2.11132342      0.52740118
H       1.79164258     -1.90856136     -0.94108184
H      -2.77083696     -2.67851725     -0.81979220
