37
CCCCCCCOC(=O)c1ccc(O)c(Br)c1
C      -5.06922360     -1.24160742     -0.08801125
C      -3.83679353     -1.43231111     -0.95846153
C      -3.06608667     -0.13630109     -1.21891970
C      -2.44326565      0.46341260      0.04468078
C      -1.59134851      1.69037255     -0.29008416
C      -1.03785557      2.40364781      0.94901305
C      -0.10145679      1.55469722      1.80563355
O       0.97998408      1.08292290      0.99272406
C       1.85634399      0.27729073      1.63998313
O       1.79883420     -0.04608546      2.81548295
C       2.92903574     -0.17957552      0.71532526
C       2.96085109      0.18782532     -0.63873286
C       3.98912761     -0.26933310     -1.46672701
C       4.98253181     -1.09105879     -0.94484682
O       5.96120795     -1.50604978     -1.80307887
C       4.95905973     -1.46228357      0.40047898
Br      6.30738080     -2.58134959      1.11971260
C       3.93509857     -1.00927682      1.23254448
H      -4.79990465     -0.94210305      0.92899079
H      -5.62873331     -2.18009083     -0.01902035
H      -5.73428579     -0.48112818     -0.50917697
H      -4.15278140     -1.84772489     -1.92286075
H      -3.17488398     -2.17377798     -0.49610551
H      -2.27052876     -0.35088550     -1.94332331
H      -3.73131861      0.59844486     -1.68867068
H      -1.82680135     -0.29801658      0.53526213
H      -3.22993671      0.75418291      0.74957955
H      -2.20116335      2.40891952     -0.85201063
H      -0.76678010      1.39821955     -0.95147390
H      -1.86634276      2.76532292      1.56899505
H      -0.48673087      3.28633210      0.60107851
H      -0.64084943      0.70675268      2.24214794
H       0.30101056      2.17202465      2.61746805
H       2.19205832      0.82880855     -1.06422613
H       4.01454385      0.01480836     -2.51569960
H       6.57649813     -2.06781909     -1.29695623
H       3.91350495     -1.29720690      2.28195153
