31
CC(=O)N[C@@H](Cc1c[nH]c2ccccc12)C(=O)[O-]
C       3.57103754      2.30054510     -0.44419913
C       2.26170217      1.73978028      0.04482028
O       1.20745785      2.34001574     -0.13727339
N       2.39551337      0.54008244      0.68629650
C       1.31070494     -0.13462285      1.43732616
C       0.74552354     -1.33541331      0.66756666
C      -0.19670491     -0.95328032     -0.44029119
C       0.12409214     -0.76075865     -1.76991161
N      -1.01445729     -0.40443772     -2.43761190
C      -2.09109564     -0.39496102     -1.58224252
C      -3.44029365     -0.10807719     -1.82508359
C      -4.31935561     -0.16071395     -0.73848541
C      -3.86388765     -0.48289498      0.53812971
C      -2.51165551     -0.76532900      0.76232745
C      -1.60548957     -0.72529583     -0.31703879
C       1.86303480     -0.75468584      2.76115438
O       3.13462135     -0.77458418      2.82662861
O       1.00788241     -1.14701614      3.60232264
H       3.44974042      2.64495969     -1.47508049
H       4.36491049      1.54831693     -0.42797774
H       3.86159125      3.13935307      0.19367750
H       3.30057844      0.28459933      1.08213943
H       0.53405590      0.59912888      1.68166799
H       1.56852016     -1.92706706      0.24280820
H       0.20612681     -2.01886498      1.33636934
H       1.07520992     -0.81937867     -2.28019715
H      -1.06082590     -0.17043290     -3.41747885
H      -3.79346274      0.15370768     -2.81585902
H      -5.37202425      0.06171017     -0.89067671
H      -4.55694871     -0.50966174      1.37435440
H      -2.15610208     -1.00472298      1.76181826
