34
OC(c1ccc(F)cc1)(c1cncnc1)c1ccccc1Cl
O       0.04507114     -0.04350148     -2.15130190
C      -0.02655667      0.14167297     -0.72289079
C       1.34153936     -0.28217917     -0.13267117
C       1.45335132     -0.91645607      1.12214168
C       2.70372410     -1.26498635      1.63966586
C       3.85358158     -0.97230452      0.91895603
F       5.04972165     -1.30597087      1.42012188
C       3.78010316     -0.33046583     -0.30894661
C       2.53260564      0.01830173     -0.83013697
C      -0.26521548      1.63858501     -0.54824881
C      -1.01562557      2.37823258     -1.44949680
N      -1.29560869      3.69249070     -1.31454645
C      -0.79376631      4.28421191     -0.22354464
N      -0.06443964      3.68565480      0.72778403
C       0.18398923      2.37216439      0.53819043
C      -1.20503667     -0.74314220     -0.24574324
C      -2.21745381     -0.21753512      0.59150327
C      -3.28180344     -1.00325484      1.04584609
C      -3.36618402     -2.34088118      0.68523867
C      -2.38248829     -2.89488538     -0.12707377
C      -1.31311632     -2.11254166     -0.58597989
Cl     -0.14019385     -2.93766692     -1.56075233
H       0.44648235     -0.91986729     -2.29556504
H       0.57220444     -1.14853735      1.71741698
H       2.78711120     -1.76047126      2.60216546
H       4.69204458     -0.10023536     -0.85098506
H       2.49333586      0.53760478     -1.78766603
H      -1.43927320      1.91926629     -2.34058856
H      -0.99901769      5.34124892     -0.09678841
H       0.77189536      1.92267674      1.33401828
H      -2.20867503      0.82276770      0.91216941
H      -4.04675461     -0.56258296      1.68210619
H      -4.19401374     -2.95178566      1.03626278
H      -2.45153795     -3.94562704     -0.40066057
