20
NC(=O)OCc1ccccc1
N       3.84899045      0.55112583     -0.23158290
C       2.99629939     -0.45794442      0.05016503
O       3.35462585     -1.60341142      0.26860513
O       1.72810685      0.00018235      0.04879607
C       0.75946195     -1.00894200      0.33942110
C      -0.60406392     -0.36773036      0.30604893
C      -1.14945038      0.20526254      1.46360345
C      -2.40513060      0.81398297      1.42783508
C      -3.12321488      0.86344346      0.23440965
C      -2.58503840      0.30893522     -0.92543621
C      -1.32952160     -0.30024402     -0.89180602
H       4.83921229      0.36423147     -0.26717651
H       3.48946791      1.47731371     -0.40287367
H       0.94494714     -1.44024955      1.33115735
H       0.81218736     -1.81294216     -0.40541146
H      -0.59600856      0.18221691      2.39980690
H      -2.82145240      1.25277517      2.33082197
H      -4.10014867      1.33872586      0.20709353
H      -3.14167642      0.35382339     -1.85784529
H      -0.91759336     -0.72055496     -1.80666099
