40
CCN(CC)C(C)COC(=O)c1ccc(N)cc1
C      -5.02211423     -1.38967471      0.82021798
C      -3.52218486     -1.44562390      0.54226551
N      -2.94204693     -0.10451375      0.35012024
C      -3.26323738      0.42692424     -0.99045408
C      -3.07425284      1.93789777     -1.09784158
C      -1.48284974     -0.05429064      0.63597096
C      -1.25114535     -0.05924828      2.15789937
C      -0.62155675     -1.14694408     -0.04573690
O       0.78396839     -0.91364795      0.16647783
C       1.36241476     -0.03031893     -0.68505574
O       0.79842288      0.56326671     -1.59046633
C       2.80557911      0.13820101     -0.36455681
C       3.43126947     -0.55029868      0.68108373
C       4.79320537     -0.35257105      0.93647409
C       5.53827479      0.56001040      0.18543279
N       6.92082970      0.66022579      0.36882387
C       4.92340241      1.19950649     -0.89327467
C       3.56272166      1.00938423     -1.15617739
H      -5.59363713     -1.04029157     -0.04396527
H      -5.24006433     -0.73141244      1.66800142
H      -5.39013908     -2.39008287      1.07182340
H      -3.07366360     -1.93869026      1.41140804
H      -3.32505986     -2.09296202     -0.32129517
H      -2.68494134     -0.07776990     -1.77282929
H      -4.31721716      0.24163429     -1.22375520
H      -3.48832866      2.29607706     -2.04655644
H      -2.02027001      2.22795135     -1.07647895
H      -3.59662705      2.45918880     -0.28879612
H      -1.09598797      0.92107967      0.32304677
H      -1.47607966     -1.02941525      2.61134956
H      -1.87059834      0.69972398      2.64905993
H      -0.20668564      0.17733564      2.38967939
H      -0.82666100     -1.22167949     -1.11981433
H      -0.83667933     -2.13204673      0.38276467
H       2.87968249     -1.25412273      1.29888181
H       5.26815741     -0.92136474      1.73201582
H       7.32211327      1.52662045      0.02335034
H       7.23113270      0.44149632      1.31038292
H       5.49862843      1.85536213     -1.54191262
H       3.10222539      1.53508363     -1.99051634
