23
C#CC(C)(O)CC(C)C
C      -2.10516689      2.16920847     -0.42749212
C      -1.72085220      1.06337260     -0.15751036
C      -1.25459994     -0.29417274      0.18418204
C      -2.28960146     -1.32498036     -0.28286697
O      -1.15924555     -0.41722995      1.60144206
C       0.11490956     -0.61153721     -0.45367936
C       1.27250615      0.38200476     -0.18658301
C       1.63469298      0.52120043      1.29162171
C       2.51172270     -0.06312660     -0.97267468
H      -2.44003308      3.15240376     -0.66634481
H      -2.43229136     -1.29661979     -1.36886264
H      -1.98623488     -2.33913658      0.00188134
H      -3.26337847     -1.14850983      0.19034907
H      -1.97931487     -0.05077590      1.97373885
H       0.43713437     -1.60472179     -0.11041377
H      -0.01624658     -0.68400718     -1.54264733
H       0.99030600      1.37231950     -0.56378465
H       0.84423589      1.03147970      1.84906804
H       2.54392496      1.11994968      1.41515790
H       1.81081355     -0.45635507      1.75254687
H       3.33194322      0.65140986     -0.84498209
H       2.86268363     -1.04545869     -0.63841575
H       2.29209228     -0.12671707     -2.04373035
