48
CC(C)OC(=O)C1(S(=O)(=O)c2ccc([N+](=O)[O-])cc2)CCCCCC1
C      -4.06678469     -1.93987943     -1.09061993
C      -2.66567028     -2.08450213     -0.50967963
C      -1.91484547     -3.22299563     -1.18891335
O      -1.98092937     -0.83931156     -0.74944748
C      -0.94511467     -0.52898068      0.07542668
O      -0.56247977     -1.25343483      0.98710736
C      -0.30961223      0.81607879     -0.26693889
S       1.06219076      0.39032050     -1.38065253
O       0.56358394     -0.44114025     -2.46163652
O       1.78837487      1.60706386     -1.70275085
C       2.20755278     -0.62412697     -0.45420984
C       3.23926809     -0.01517750      0.27078878
C       4.16073278     -0.80599798      0.96232465
C       4.05582648     -2.20362515      0.90411255
N       5.02280214     -3.03652350      1.63148481
O       4.92544950     -4.26644689      1.51715906
O       5.87787249     -2.45906387      2.31784924
C       3.04366988     -2.81295379      0.14890530
C       2.12481039     -2.01843895     -0.54169501
C      -1.31356819      1.72851806     -1.02549510
C      -1.03122104      3.23316351     -0.99197003
C      -1.65792259      3.92571544      0.21705441
C      -0.97270972      3.64529988      1.54886132
C      -0.81036370      2.16706112      1.89452956
C       0.23928663      1.46926092      1.02564562
H      -4.02731141     -1.71530213     -2.16236155
H      -4.59157395     -1.10466909     -0.61407926
H      -4.65511990     -2.85066660     -0.94355482
H      -2.75291949     -2.27070512      0.56754136
H      -0.92250716     -3.35222160     -0.74670525
H      -2.45641886     -4.16894336     -1.09193485
H      -1.76042896     -3.01165380     -2.25272126
H       3.34026992      1.06850141      0.29770531
H       4.95439060     -0.32251179      1.52946591
H       2.96055514     -3.89647318      0.08403171
H       1.35324717     -2.49627312     -1.14214403
H      -1.35318816      1.42154422     -2.07932265
H      -2.33128981      1.56860308     -0.64470302
H       0.03865981      3.45298396     -1.05630686
H      -1.48823555      3.67426314     -1.88737241
H      -2.71844891      3.65410108      0.28971145
H      -1.63458108      5.00940443      0.04638937
H      -1.56077693      4.12512278      2.34122231
H       0.00896990      4.13531868      1.56161344
H      -0.46923663      2.11506867      2.93658563
H      -1.77382209      1.64636479      1.86007544
H       0.72079136      0.70652007      1.65049670
H       1.03877598      2.18174048      0.78773999
