18
O=C(O)/C=C(\CC(=O)O)C(=O)O
O       0.95278913      2.26673194      0.92488367
C      -0.11511838      2.32458174      0.34998700
O      -0.72472541      3.49366905      0.09874317
C      -0.92695627      1.21680296     -0.16857918
C      -0.64632676     -0.08832060      0.01057410
C       0.49015173     -0.68194906      0.79808772
C       1.59905555     -1.12231103     -0.13009970
O       1.69894460     -0.91516722     -1.32857152
O       2.56378716     -1.80438098      0.52306982
C      -1.57627486     -1.02128764     -0.66546274
O      -2.57843242     -0.72210776     -1.28933708
O      -1.21359277     -2.30541305     -0.52117198
H      -0.11350804      4.16713622      0.46357276
H      -1.78653472      1.52980755     -0.75673052
H       0.14114947     -1.54817978      1.37222782
H       0.90592523      0.01699061      1.52668738
H       3.22044758     -2.00961404     -0.17517829
H      -1.89078080     -2.79698894     -1.03270243
