21
OCCCCCCCl
O      -4.03511345      0.51764157     -0.32216402
C      -2.93786280     -0.32112486      0.01099957
C      -1.64546010      0.45328332     -0.20582365
C      -0.41815713     -0.38939365      0.13381493
C       0.87486553      0.39738087     -0.08725896
C       2.10499957     -0.44590156      0.25270126
C       3.38886397      0.34279703      0.03060372
Cl      4.80590332     -0.65484022      0.43128349
H      -4.84515983     -0.00003957     -0.17509575
H      -2.97252612     -1.21009987     -0.62677012
H      -3.03881860     -0.62807335      1.05685754
H      -1.59637111      0.79283844     -1.24804873
H      -1.66147420      1.36441443      0.40534262
H      -0.40944524     -1.29289954     -0.48792374
H      -0.47508573     -0.71660578      1.17911355
H       0.93155721      0.72466172     -1.13262245
H       0.86591400      1.30097546      0.53447111
H       2.11147510     -1.34963068     -0.36924002
H       2.04581921     -0.77322018      1.29813869
H       3.48608364      0.65380252     -1.01389195
H       3.41999276      1.23403389      0.66453977
