14
O=c1[nH]c2cncnc2[nH]1
O       3.36047191     -0.04488643      0.09310793
C       2.14367423     -0.05056185      0.06367334
N       1.31386335      1.05556058     -0.17303645
C      -0.00189238      0.61540022     -0.12015516
C      -1.20065170      1.23486710     -0.27114271
N      -2.35100409      0.53300250     -0.16303398
C      -2.23923740     -0.79654513      0.09925648
N      -1.10105400     -1.49654176      0.26444169
C      -0.01618095     -0.73819032      0.14366492
N       1.30363610     -1.15111990      0.25738350
H       1.65378099      1.98794445     -0.34647741
H      -1.29905747      2.29236336     -0.48000123
H      -3.16965133     -1.34996832      0.18391361
H       1.60330275     -2.09132449      0.44840545
