54
CC12CCC(=O)C=C1CCC1C2C2CC3(C(O)O2)C(C(=O)CO)CCC13
C      -2.79100801     -0.56655603     -2.31259304
C      -2.38321296     -0.33585404     -0.83773290
C      -2.76318330     -1.58188650      0.00156904
C      -4.26944622     -1.81184989      0.10194659
C      -5.00300478     -0.56729373      0.53549640
O      -6.13104958     -0.61173190      1.02254357
C      -4.35686052      0.74938683      0.32935846
C      -3.17250658      0.86295332     -0.29578014
C      -2.50043017      2.20343160     -0.42706624
C      -1.18792157      2.23312413      0.36247245
C      -0.47565027      0.86581101      0.42695853
C      -0.83688380     -0.01557322     -0.80413510
C       0.10656949     -1.24936899     -0.89799745
C       1.56047349     -0.80739520     -1.06533225
C       1.82035813     -0.30651397      0.34665427
C       1.20848553     -1.47779860      1.13619177
O       2.12956466     -2.54985555      1.22127783
O       0.09877981     -1.94558862      0.36358357
C       3.24479263      0.05225900      0.78579700
C       4.10637940      0.52114661     -0.37830312
O       3.91718785      1.59453012     -0.95643636
C       5.20331228     -0.42740392     -0.84821832
O       5.97097812      0.14082985     -1.89950070
C       3.07013678      1.16656789      1.84031620
C       1.58585458      1.55451086      1.85009849
C       1.05004166      1.02266724      0.52817784
H      -3.87391662     -0.68145078     -2.43106243
H      -2.31732678     -1.46691243     -2.71809595
H      -2.49490720      0.27720306     -2.94734856
H      -2.31159892     -2.48739158     -0.41993643
H      -2.37018745     -1.47160269      1.02089590
H      -4.45907135     -2.59690300      0.84258687
H      -4.68548331     -2.14296249     -0.85471347
H      -4.89967074      1.60156465      0.72277210
H      -2.30091761      2.39867759     -1.48816229
H      -3.14534275      3.02259240     -0.08714491
H      -0.53854185      2.99491751     -0.08634731
H      -1.38370940      2.57208555      1.38819860
H      -0.83533632      0.35838323      1.33265030
H      -0.61586741      0.59195082     -1.69616949
H      -0.19939729     -1.93015977     -1.69717979
H       1.68790074     -0.05543267     -1.85023671
H       2.19904710     -1.66647308     -1.30300409
H       0.87844850     -1.21411018      2.14509429
H       1.61986220     -3.26838789      1.63552504
H       3.77125677     -0.78700003      1.25189178
H       4.74614388     -1.35007558     -1.21407136
H       5.87376868     -0.64794571     -0.01344856
H       5.49444261      0.94849186     -2.18083634
H       3.69340787      2.04073960      1.62310887
H       3.36065608      0.80722935      2.83382362
H       1.45347487      2.63703910      1.94439025
H       1.08211837      1.08548496      2.70322058
H       1.36899068      1.71789990     -0.26270779
