16
Cc1cc(Cl)cc(Cl)c1O
C      -2.25028852     -0.23982071      0.02898985
C      -0.77806974      0.05259791      0.00679013
C      -0.31606747      1.37628447     -0.02955934
C       1.05476913      1.64631713     -0.05017461
Cl      1.59903671      3.27866299     -0.09473547
C       1.98600948      0.61108835     -0.03511195
C       1.53490523     -0.70540268      0.00095290
Cl      2.68476640     -1.99169909      0.01974380
C       0.16253061     -0.98348154      0.02177594
O      -0.29593896     -2.27434754      0.05730489
H      -2.53258632     -0.83163721     -0.84769379
H      -2.51411397     -0.78902839      0.93853989
H      -2.84248742      0.68119321      0.01314515
H      -1.02594567      2.20084448     -0.04188642
H       3.04975675      0.82921759     -0.05131359
H       0.48372374     -2.86078898      0.06323264
