36
CC(C)CC(N)C(=O)NCC(=O)NCC(=O)O
C      -2.07566314      2.74403253      1.74721705
C      -2.86303175      1.72526077      0.92100531
C      -4.05456362      2.41838026      0.24967651
C      -1.99380634      1.03889225     -0.15180300
C      -0.74607659      0.30996095      0.37032537
N      -1.07451423     -0.73388647      1.36222618
C      -0.01354742     -0.34917004     -0.81926250
O      -0.23381194     -1.50575474     -1.18759066
N       0.93513792      0.44770090     -1.42932046
C       1.83127451     -0.13479069     -2.41172300
C       2.92768055     -0.90605890     -1.67178012
O       4.00383968     -0.39564837     -1.36395636
N       2.54694361     -2.17817828     -1.29170733
C       3.31425902     -2.89505104     -0.28496404
C       2.85220925     -2.50476024      1.11509025
O       1.84052787     -1.88639835      1.41156975
O       3.68274751     -2.95840758      2.07854696
H      -1.57272192      3.47272441      1.10361198
H      -2.73871583      3.29185840      2.42500855
H      -1.31443784      2.25682128      2.36604487
H      -3.26461286      0.96070221      1.60015352
H      -4.71790448      2.86699825      0.99645609
H      -3.72017037      3.21416046     -0.42405265
H      -4.64538981      1.70221563     -0.33090179
H      -1.67911146      1.78842415     -0.89377749
H      -2.62268510      0.32283188     -0.70276216
H      -0.05914043      1.02134844      0.84350065
H      -1.57105964     -1.48457171      0.87022553
H      -0.18471961     -1.17806357      1.63803892
H       1.29000439      1.24103376     -0.90725004
H       2.28425520      0.67243053     -2.99392846
H       1.28646834     -0.79759521     -3.09001263
H       1.53520619     -2.34072325     -1.28577239
H       3.13653206     -3.96464972     -0.43080624
H       4.37896641     -2.66157337     -0.39080400
H       3.29963188     -2.62049552      2.91440330
