68
CCN(CC)c1ccc([C+](c2ccccc2)c2ccc(N(CC)CC)cc2)cc1.O=S(=O)([O-])O
C      -6.93443197      0.79765957      0.70879469
C      -5.79946527      1.69519034      1.17787573
N      -4.79069017      1.87805325      0.12610492
C      -5.03146466      2.96557904     -0.83249509
C      -5.39930593      2.43155190     -2.21071282
C      -3.64959776      1.08298053      0.07021103
C      -3.54279798     -0.12664388      0.77794795
C      -2.39459276     -0.93277358      0.72790698
C      -1.29405391     -0.55561768     -0.04029420
C      -0.06234304     -1.41035696     -0.09568155
C      -0.18776990     -2.89500948     -0.28719811
C       0.57378541     -3.78133149      0.48770707
C       0.45705170     -5.16165300      0.30853197
C      -0.42185667     -5.66981715     -0.64622690
C      -1.18567265     -4.79942056     -1.42105048
C      -1.06971964     -3.41881484     -1.24277069
C       1.29292063     -0.78148206      0.04550335
C       2.34733815     -1.15057358     -0.78811306
C       3.61435469     -0.56116102     -0.64623737
C       3.89168860      0.41737874      0.32412130
N       5.14994542      0.99482236      0.46175226
C       6.31203963      0.52686026     -0.30477392
C       6.41102318      1.24806354     -1.64152618
C       5.40109424      2.10806031      1.38639393
C       5.75352332      1.59661428      2.77625649
C       2.80735181      0.77094052      1.14589070
C       1.53578022      0.18913469      1.01592982
C      -1.37115026      0.63866699     -0.75536674
C      -2.52646561      1.43426686     -0.69808543
O      -0.19460855     -1.06532270     -0.92799343
S      -0.44556521     -0.01247969      0.04739867
O      -0.89781178     -0.46177953      1.35372163
O      -1.08212425      1.18483842     -0.47666168
O       1.06488517      0.45894732      0.31599313
H      -7.47665770      1.25264571     -0.12615194
H      -6.56990727     -0.17919249      0.37709065
H      -7.64871513      0.63711344      1.52258913
H      -6.21663498      2.66903110      1.46419030
H      -5.35754563      1.30491562      2.10209833
H      -5.86211632      3.59428124     -0.48772123
H      -4.17162636      3.64191164     -0.89039543
H      -4.58857235      1.84595707     -2.65362063
H      -6.28465587      1.78983058     -2.16332037
H      -5.62018637      3.26245507     -2.88825191
H      -4.36589391     -0.49392793      1.38289924
H      -2.37636413     -1.85648476      1.30172083
H       1.26064214     -3.40248758      1.24162987
H       1.05247032     -5.83837164      0.91580152
H      -0.51198387     -6.74389613     -0.78588876
H      -1.87100547     -5.19311830     -2.16748296
H      -1.66960514     -2.75428679     -1.86070221
H       2.20050061     -1.89635843     -1.56609827
H       4.37927166     -0.89398710     -1.34054877
H       6.29947829     -0.55960456     -0.44477597
H       7.23100498      0.72358776      0.26244825
H       6.49888262      2.33015598     -1.49892290
H       7.29388229      0.90583513     -2.19055656
H       5.53156459      1.06685810     -2.26694617
H       4.55583582      2.80440356      1.42602598
H       6.24133025      2.71080369      1.01764359
H       5.96549946      2.43659677      3.44515063
H       4.93723761      1.01347935      3.21343221
H       6.64035717      0.95460924      2.74672322
H       2.91813236      1.51027365      1.93265575
H       0.74445539      0.50318253      1.69309253
H      -0.53680177      0.96835722     -1.37056883
H      -2.50879213      2.35426335     -1.27363477
H       1.55522462     -0.10420383     -0.31245831
