8
FC(Cl)(Cl)C(F)(Cl)Cl
F      -1.03908938     -1.49250295     -0.13602383
C      -0.75174762     -0.17686647      0.10220197
Cl     -1.21682056      0.16653978      1.80540166
Cl     -1.82573806      0.79102494     -0.96950660
C       0.75030309      0.08713922     -0.19053243
F       1.01223167     -0.17617403     -1.50669186
Cl      1.24827186      1.78764247      0.11837898
Cl      1.82258900     -0.98680296      0.77677212
