35
C#CCOc1cc(-n2nc3n(c2=O)CCCC3)c(Cl)cc1Cl
C       6.03646175      2.43620152      3.01188561
C       5.27943752      1.94741955      2.21750434
C       4.35485504      1.34666638      1.24612852
O       3.96722368      0.04870493      1.71531464
C       3.20093342     -0.59783120      0.78031133
C       1.83723287     -0.29284074      0.69363510
C       0.98435474     -0.95379477     -0.21292634
N      -0.38827305     -0.58786771     -0.24777291
N      -1.31590754     -1.31881576     -0.95559421
C      -2.43724472     -0.69564958     -0.76511223
N      -2.36182371      0.36970963      0.04734725
C      -1.03301100      0.51536673      0.36386105
O      -0.55740676      1.44520480      0.99790715
C      -3.39593807      1.35445412      0.25997532
C      -4.77727849      0.78451263     -0.04145267
C      -4.75797021      0.02719921     -1.37035443
C      -3.75812387     -1.12620761     -1.32627435
C       1.56470964     -1.95843263     -1.02364990
Cl      0.72185377     -2.86172096     -2.24121194
C       2.93089446     -2.27573188     -0.91461616
C       3.74568361     -1.60284243     -0.01136808
Cl      5.41310146     -2.02774529      0.08605226
H       6.70847114      2.86141777      3.72119819
H       3.47132806      1.98787611      1.14202449
H       4.85120765      1.26637996      0.27074838
H       1.45580237      0.45726861      1.38091783
H      -3.33177145      1.72453915      1.28865049
H      -3.17933387      2.20022767     -0.40363483
H      -5.07807997      0.09939889      0.76081911
H      -5.51516859      1.59350225     -0.07375374
H      -4.48795177      0.71830525     -2.17851127
H      -5.75780107     -0.35988954     -1.59570667
H      -4.13989603     -1.93318555     -0.69015428
H      -3.60872560     -1.53818416     -2.32985747
H       3.35815457     -3.05361535     -1.54420584
