56
CC1(C(=O)NCc2ccc(OC(F)(F)F)cc2)c2ccccc2C(=O)N1CCc1ccccn1
C      -2.13256487     -2.11997459     -1.91861936
C      -1.27330673     -2.29652581     -0.66278813
C       0.24513328     -2.17054707     -0.98668897
O       0.72371331     -2.45797598     -2.08320207
N       1.02770638     -1.84019084      0.10376794
C       2.44255954     -1.58995898     -0.00448372
C       2.71300337     -0.11046720     -0.08845764
C       2.95947108      0.63890617      1.06863243
C       3.18266178      2.01408571      0.98120116
C       3.16221591      2.66427056     -0.25593856
O       3.38628423      4.00980661     -0.19617818
C       3.81551302      4.63956513     -1.39142357
F       4.86931895      3.99550005     -1.94309426
F       2.80707665      4.71673749     -2.29251482
F       4.20545138      5.89913809     -1.08895721
C       2.89224729      1.92724532     -1.40859260
C       2.66892394      0.54941758     -1.32342680
C      -1.56086772     -3.63533808     -0.01665379
C      -1.36033890     -4.91953118     -0.50137786
C      -1.72704491     -6.00087246      0.30806611
C      -2.28780445     -5.79444698      1.58150561
C      -2.48804242     -4.50115159      2.06531144
C      -2.11332806     -3.44951524      1.24837288
C      -2.21702473     -2.01168984      1.50688855
O      -2.71944623     -1.53193846      2.50462363
N      -1.64821658     -1.35614274      0.42174550
C      -1.82555772      0.07622512      0.17175679
C      -1.37418040      0.97282997      1.32929743
C      -1.38378499      2.43224536      0.94378795
C      -0.36631517      3.28007694      1.36561525
C      -0.42374198      4.62889752      1.02547553
C      -1.50749835      5.10089415      0.29444466
C      -2.48780802      4.19738611     -0.07094393
N      -2.45035979      2.88020911      0.22856458
H      -3.20118464     -2.14315496     -1.67781115
H      -1.93951525     -2.90555642     -2.65538516
H      -1.92585799     -1.16423112     -2.41299627
H       0.54370274     -1.51302033      0.92873632
H       2.91567769     -2.01189716      0.88979957
H       2.86638527     -2.10807368     -0.87273819
H       2.98068904      0.15688046      2.04229812
H       3.37331444      2.58221603      1.88669147
H       2.83284221      2.38755809     -2.39066480
H       2.44859286     -0.01064349     -2.23229970
H      -0.92809065     -5.08998122     -1.48581012
H      -1.57983588     -7.01723979     -0.05188358
H      -2.56778030     -6.65067209      2.19244853
H      -2.92274563     -4.32113253      3.04381543
H      -1.24404298      0.33364114     -0.72096995
H      -2.88562067      0.23640382     -0.05578646
H      -0.36539578      0.67644814      1.63979002
H      -2.02692571      0.85147534      2.19904838
H       0.46007298      2.90380350      1.95405591
H       0.36462401      5.30787360      1.33947858
H      -1.58992526      6.14671037      0.02446763
H      -3.36302857      4.51542233     -0.62766459
