41
CSC(=O)c1c(C(F)F)nc(C(F)(F)F)c(C(=O)SC)c1CC(C)C
C       4.42308889     -1.43838121     -1.82646742
S       2.61713966     -1.43076719     -1.82037655
C       2.34259503     -1.01476485     -0.14004679
O       3.22453030     -0.68091079      0.63791583
C       0.96004667     -1.16601477      0.34574340
C       0.70116388     -2.22159356      1.22735892
C       1.81154529     -3.16440903      1.66936090
F       1.35866583     -4.24895784      2.36296172
F       2.51232705     -3.68200155      0.62004040
N      -0.54324079     -2.42454423      1.74795622
C      -1.57341149     -1.60061606      1.38418601
C      -2.94634881     -1.86016268      2.00083882
F      -3.04919401     -3.08621617      2.59126870
F      -3.26929003     -0.96106222      2.97045475
F      -3.96012571     -1.82118899      1.08994640
C      -1.36711402     -0.52948537      0.50739697
C      -2.52300478      0.32043282      0.17064780
O      -2.97907981      1.09185739      0.99944080
S      -3.20174365      0.08580668     -1.42821495
C      -4.69763197      1.08413236     -1.25705299
C      -0.06917896     -0.25669770      0.00888886
C       0.22038236      1.01639223     -0.77213938
C       0.25144383      2.29459443      0.09448527
C       0.29525667      3.52980689     -0.80918501
C       1.44612318      2.31450888      1.05082120
H       4.77876581     -1.70889970     -2.82421092
H       4.81261001     -0.44758226     -1.57712654
H       4.80617272     -2.17153462     -1.11131386
H       2.51126573     -2.63479441      2.32277718
H      -5.32177057      0.70408361     -0.44359276
H      -4.44203330      2.12947809     -1.06335763
H      -5.27153396      1.03475459     -2.18623037
H      -0.52726621      1.12140490     -1.56515590
H       1.16685760      0.94618100     -1.31494393
H      -0.65990111      2.36171631      0.69830114
H       1.19382544      3.53296258     -1.43558416
H      -0.57895333      3.56010072     -1.46819255
H       0.29416990      4.44868296     -0.21327309
H       2.39281035      2.22800017      0.50699031
H       1.47034060      3.25000956      1.62022342
H       1.38969570      1.49567903      1.77452982
