27
CCN(CC)C(=O)c1cccnc1
C      -1.57352756      1.85219663      0.79853041
C      -1.03846538      0.44025572      0.98152366
N      -0.98041757     -0.30641214     -0.28151622
C      -2.23399257     -0.87107042     -0.78491420
C      -2.55546943     -2.22191582     -0.16190317
C       0.20218707     -0.73642010     -0.89130971
O       0.23915669     -1.57382981     -1.79001515
C       1.48732839     -0.17345547     -0.45307714
C       1.78190749      1.18334110     -0.57881058
C       3.02872051      1.64321759     -0.16255997
C       3.93258563      0.72394814      0.35172350
N       3.67951614     -0.59957240      0.46577120
C       2.46343833     -1.02437406      0.04222463
H      -0.97164602      2.41855043      0.08243027
H      -2.60424194      1.84516829      0.43121902
H      -1.56211232      2.38671281      1.75355373
H      -0.05142492      0.48419139      1.44933766
H      -1.68029906     -0.11297295      1.67604146
H      -3.04738627     -0.16356326     -0.59586986
H      -2.15898231     -0.98842295     -1.87228579
H      -2.67363091     -2.14092910      0.92308725
H      -3.48809117     -2.61713079     -0.57628989
H      -1.76065805     -2.94899156     -0.35667805
H       1.06057289      1.86884917     -1.01178221
H       3.29524254      2.69116853     -0.24572243
H       4.91765685      1.03611793      0.68826182
H       2.29203293     -2.09465690      0.11902975
