29
Nc1ccc(S(=O)(=O)Nc2nnc(S(N)(=O)=O)s2)cc1
N      -5.49134408     -1.99172678      1.04716756
C      -4.40041310     -1.14506741      0.82444528
C      -3.17724940     -1.39447324      1.45554578
C      -2.04694988     -0.63214259      1.15045805
C      -2.13117949      0.35605258      0.16729002
S      -0.69199584      1.32543930     -0.21224648
O      -1.09529293      2.39489227     -1.09933635
O      -0.00891755      1.58243025      1.03595886
N       0.17635018      0.22461482     -1.16071893
C       1.60681048      0.37639575     -0.95043145
N       2.33274822      1.03112593     -1.82646905
N       3.67479089      1.01244051     -1.48927417
C       3.87990756      0.30530523     -0.39533182
S       5.43107330      0.00811267      0.37253032
N       6.64879195      0.81629950     -0.46730068
O       5.38040768      0.63398094      1.67468572
O       5.71325072     -1.40040194      0.20601149
S       2.48459227     -0.39689844      0.29458759
C      -3.33158627      0.58827110     -0.50545456
C      -4.45383997     -0.18223607     -0.18917023
H      -5.49619835     -2.42719073      1.96455254
H      -6.38957521     -1.57880210      0.81512811
H      -3.09681523     -2.18554937      2.19716491
H      -1.11200521     -0.82161809      1.67262768
H      -0.01200480      0.47381036     -2.13420031
H       7.35117569      0.14496776     -0.77977087
H       7.03859840      1.55283835      0.12252435
H      -3.40574406      1.35020422     -1.27778702
H      -5.37738597     -0.02107480     -0.74011272
