20
COc1cc(Cl)c(Cl)cc1OC
C      -1.37286993      2.79755293     -0.05254684
O      -1.39517429      1.37746533     -0.01238935
C      -0.19264556      0.71567343     -0.01642654
C       1.05513327      1.34615454     -0.05750623
C       2.22927320      0.58692709     -0.05828097
Cl      3.73409894      1.43684078     -0.11033976
C       2.15976425     -0.80786243     -0.01791451
Cl      3.57255903     -1.80464479     -0.01652485
C       0.91601694     -1.44537774      0.02328267
C      -0.26283417     -0.69274509      0.02433163
O      -1.52514083     -1.23046170      0.06308266
C      -1.64413923     -2.64568297      0.10493155
H      -0.87396078      3.20951779      0.83074551
H      -2.40919045      3.14876343     -0.04291950
H      -0.90787309      3.15896770     -0.97557884
H       1.14014524      2.42727154     -0.08938742
H       0.89311790     -2.52962125      0.05407891
H      -2.71019172     -2.89106281      0.13181195
H      -1.18608876     -3.05355917      1.01193644
H      -1.21999994     -3.10411661     -0.79438653
