26
COc1ccc(C)cc1NC(C)=O
C      -0.24817163      3.46978456      0.19062271
O      -0.69876096      2.12473735      0.08261997
C       0.26588970      1.15442056     -0.07433831
C       1.63960170      1.39752574     -0.14933456
C       2.53293932      0.33518905     -0.30990074
C       2.06661971     -0.98027961     -0.38715883
C       3.02333814     -2.11796806     -0.59316514
C       0.68677397     -1.22300713     -0.32736815
C      -0.21622531     -0.16892187     -0.16624902
N      -1.61672607     -0.34310178     -0.09129822
C      -2.33883431     -1.51577057     -0.14314742
C      -3.82392859     -1.28078512     -0.02142878
O      -1.89326031     -2.65344346     -0.24701543
H       0.26403356      3.78891760     -0.72297512
H      -1.12880895      4.10691121      0.31715008
H       0.38811577      3.60392976      1.07157261
H       2.05127359      2.39901411     -0.08989568
H       3.59924409      0.54212537     -0.37376347
H       2.66258766     -3.02527677     -0.09731042
H       4.00568151     -1.88551134     -0.16867302
H       3.13979144     -2.31958401     -1.66241910
H       0.33885128     -2.24841454     -0.40928517
H      -2.12284545      0.52934995      0.02486333
H      -4.35954165     -2.06716094     -0.56109232
H      -4.11054169     -0.31865061     -0.45567515
H      -4.10709654     -1.30402945      1.03408234
