44
CCN(C(=O)n1nnn(-c2ccccc2Cl)c1=O)C1CCCCC1
C      -0.88995961     -1.56308498     -1.81862461
C      -1.35848058     -1.48947685     -0.37033490
N      -1.33846356     -0.12463553      0.18601200
C      -0.18390878      0.68483257      0.16676146
O      -0.28101385      1.91436078      0.11739878
N       1.04813305      0.06164063      0.26508892
N       1.23483520     -1.13494348      0.89571363
N       2.47071682     -1.37628840      0.99220073
N       3.19073845     -0.34571101      0.46341305
C       4.61236863     -0.35057031      0.46405738
C       5.30181306      0.79105483      0.00622881
C       6.70013533      0.85991673     -0.01330550
C       7.45602733     -0.21544814      0.42603580
C       6.81015539     -1.35897304      0.88265689
C       5.40568457     -1.43607450      0.90472555
Cl      4.78362679     -2.94920564      1.48035705
C       2.30003333      0.62399101     -0.01681874
O       2.54415307      1.67016383     -0.59682054
C      -2.63281475      0.57255906      0.36437190
C      -3.56562717     -0.14550120      1.35652294
C      -4.86153756      0.63818538      1.56215959
C      -5.56460306      0.91823479      0.23643231
C      -4.64382475      1.62548311     -0.75466373
C      -3.34310538      0.85328031     -0.96870900
H      -1.48221785     -0.90590234     -2.46226129
H       0.15913971     -1.27340692     -1.92495054
H      -0.99103761     -2.58664278     -2.19328312
H      -2.37510627     -1.88849070     -0.32182305
H      -0.75813139     -2.14967774      0.25858465
H       4.77427457      1.67500996     -0.34339352
H       7.19065208      1.76228252     -0.37264378
H       8.54182597     -0.16610328      0.41291354
H       7.41021477     -2.20108536      1.22242303
H      -2.41968205      1.54773861      0.82255009
H      -3.05668599     -0.27184768      2.31970681
H      -3.82222076     -1.15069217      1.00543818
H      -5.53092118      0.07566741      2.22276511
H      -4.63935706      1.58696410      2.06588719
H      -5.91064553     -0.02727135     -0.19908733
H      -6.45455299      1.53233746      0.41443593
H      -5.16016460      1.74923908     -1.71328421
H      -4.41340384      2.63193962     -0.38411602
H      -2.68476180      1.42382596     -1.63448472
H      -3.57230012     -0.08767436     -1.48308794
