13
CC(=O)N(C)N=O
C      -1.89748208     -0.65602201      0.07794645
C      -0.57621268     -0.41461456     -0.61412294
O      -0.42448060     -0.75689395     -1.78917464
N       0.41808296      0.19595470      0.13505372
C       1.72304455      0.47230755     -0.43618317
N       0.15000413      0.57812711      1.55210599
O       1.11772085      1.11222825      2.10315602
H      -1.76196272     -1.32006739      0.93588973
H      -2.34186134      0.29252438      0.39127604
H      -2.58720624     -1.13999144     -0.62066414
H       1.90906563      1.55005058     -0.40050879
H       1.78447654      0.14293095     -1.47685916
H       2.48681099     -0.05653415      0.14208489
