61
CCCCC(=O)N(Cc1ccc(-c2ccccc2-c2nnn[nH]2)cc1)C(C(=O)O)C(C)C
C       4.62092664      4.95245939      1.39688224
C       3.73779849      4.19181329      0.42017251
C       3.86394502      2.67872151      0.61152358
C       2.95621340      1.91863107     -0.35832183
C       3.05611976      0.41366061     -0.17876313
O       3.95316521     -0.09128350      0.50310152
N       2.13306384     -0.39354887     -0.83206877
C       1.28197316      0.08003100     -1.93292010
C      -0.19769114      0.00196218     -1.62301587
C      -0.82687951      0.99858232     -0.86750428
C      -2.19970858      0.93714183     -0.60522847
C      -2.97815024     -0.13463170     -1.06503288
C      -4.42308109     -0.20578765     -0.77494200
C      -5.32028796     -0.14302456     -1.86360879
C      -6.70262302     -0.15778529     -1.67431569
C      -7.22154416     -0.22312643     -0.38978125
C      -6.35769289     -0.28633377      0.70180317
C      -4.95874260     -0.29589297      0.53411415
C      -4.14676773     -0.40819415      1.74746955
N      -4.45175674      0.02436840      2.95784433
N      -3.40526186     -0.32379730      3.77727785
N      -2.47368210     -0.97885458      3.10234812
N      -2.93862688     -1.04424920      1.84810147
C      -2.34364465     -1.13221194     -1.81869806
C      -0.97477069     -1.06284468     -2.09993757
C       2.18299328     -1.86649222     -0.62634216
C       3.39421802     -2.47756716     -1.35302755
O       3.28051433     -3.22310813     -2.31975601
O       4.60133533     -2.14523648     -0.84739856
C       2.06202650     -2.34325808      0.84788535
C       1.96281365     -3.87434023      0.92532228
C       0.83535005     -1.73401770      1.53534596
H       4.49927806      6.03117451      1.25794869
H       4.35939040      4.71312076      2.43160348
H       5.67695361      4.70775253      1.24433575
H       4.01916391      4.46260215     -0.60476676
H       2.69437433      4.50119014      0.56410250
H       3.59835651      2.41390016      1.64400475
H       4.90881722      2.37339886      0.46274212
H       1.92363603      2.22605964     -0.18748810
H       3.24108433      2.16544035     -1.38499485
H       1.51931249     -0.52249232     -2.81933211
H       1.52372596      1.10873564     -2.21451714
H      -0.26425844      1.84844216     -0.48785819
H      -2.66027719      1.74316601     -0.03536334
H      -4.93756522     -0.06137465     -2.88046570
H      -7.37110111     -0.10474132     -2.52981812
H      -8.29748663     -0.22426237     -0.23253547
H      -6.78515674     -0.33629335      1.70159409
H      -2.39621657     -1.51603138      1.13742603
H      -2.91643585     -1.97473146     -2.20119922
H      -0.52309288     -1.84878980     -2.70429060
H       1.31239843     -2.28554364     -1.14529410
H       4.54341536     -1.47354239     -0.12277003
H       2.94802283     -2.05449088      1.42304135
H       1.10093128     -4.24688329      0.36076542
H       1.85236542     -4.20314985      1.96469732
H       2.86414314     -4.35221681      0.52751168
H       0.74146696     -2.10515002      2.56218274
H      -0.08312344     -1.99387186      1.00046541
H       0.90633296     -0.64320257      1.58974330
