36
NC(=O)C1(N2C(=O)c3cccc(Cl)c3C2=O)CCCCC1
N      -0.61043516     -2.30990171      1.93405306
C      -1.31855304     -2.15048157      0.77296361
O      -2.01549953     -3.08005550      0.37320744
C      -1.28664069     -0.73988373      0.11798854
N       0.14474497     -0.31802196      0.01093592
C       0.97963680     -0.66641977     -1.02039062
O       0.76581087     -1.28767830     -2.04248408
C       2.31180761     -0.17597928     -0.68986734
C       3.47274897     -0.20629968     -1.44231291
C       4.62466238      0.32868472     -0.86453928
C       4.58544455      0.86753947      0.43599378
C       3.39469907      0.87574744      1.17554960
Cl      3.39886015      1.54378176      2.75645353
C       2.26433272      0.34731014      0.58511900
C       0.89508053      0.16259328      1.05954449
O       0.55685981      0.31820118      2.21855005
C      -2.01379685     -0.79818301     -1.25523843
C      -2.13748499      0.57764382     -1.91188605
C      -2.87098972      1.56168352     -1.00649846
C      -2.26273269      1.61599504      0.39096541
C      -2.13236981      0.22033269      1.00393361
H      -0.30217229     -1.50555325      2.47675243
H      -0.75312103     -3.17824023      2.43367259
H       3.48215969     -0.63292873     -2.44122013
H       5.56124153      0.32750726     -1.41986451
H       5.49767824      1.27785950      0.86656970
H      -3.02852288     -1.19722639     -1.11221941
H      -1.53771578     -1.50206533     -1.94395896
H      -2.68044852      0.48256743     -2.85924662
H      -1.14498640      0.97261904     -2.15628915
H      -2.85805071      2.56078909     -1.45632611
H      -3.92391540      1.26299522     -0.92890033
H      -2.89170052      2.24042958      1.03583439
H      -1.28005824      2.09963122      0.34591964
H      -3.14023971     -0.20184845      1.12741513
H      -1.74633394      0.30685549      2.02304238
