28
O=[N+]([O-])c1ccc2c3c(cccc13)-c1ccccc1-2
O      -4.78959702     -1.13316036     -1.07563208
N      -4.19311827     -0.39484182     -0.27903890
O      -4.73051678      0.45563001      0.44272720
C      -2.75240514     -0.56797801     -0.16816570
C      -2.25768201     -1.89501958     -0.08093808
C      -0.88068968     -2.13642012      0.03127338
C      -0.02398426     -1.04971968      0.05023557
C      -0.53787955      0.24213095     -0.04420381
C       0.50229061      1.16476946     -0.01430098
C       0.22085899      2.51524093     -0.10330304
C      -1.11924397      2.90948741     -0.22449836
C      -2.16230082      1.95887492     -0.25412221
C      -1.89123675      0.56511303     -0.15756694
C       1.75462279      0.43111258      0.11067908
C       3.06787754      0.85635529      0.18576194
C       4.06387847     -0.11826107      0.30247558
C       3.73883820     -1.48775578      0.34193597
C       2.40981026     -1.91626495      0.26573602
C       1.42641910     -0.95135172      0.15061565
H      -2.94404667     -2.74062035     -0.09910653
H      -0.50313515     -3.15187437      0.09898876
H       1.01147718      3.25800408     -0.08251437
H      -1.36184575      3.96822014     -0.29663107
H      -3.18492985      2.31990724     -0.35000019
H       3.32544429      1.90909070      0.15587981
H       5.10708554      0.18471667      0.36382297
H       4.53592711     -2.22273326      0.43316862
H       2.16808157     -2.97265235      0.29672171
