61
CC(C)c1cccc(C(C)C)c1N=C=Nc1c(C(C)C)cccc1C(C)C
C      -2.36613719     -3.80010187      2.64979561
C      -1.37618158     -3.12271081      1.69441224
C      -0.75076747     -4.14940608      0.74604270
C      -2.02674313     -1.97469441      0.92544835
C      -3.15341671     -2.23612799      0.12425796
C      -3.81261927     -1.20993827     -0.54325565
C      -3.36392440      0.10015322     -0.41881901
C      -2.22728648      0.40751669      0.35120472
C      -1.79146076      1.86370984      0.49608623
C      -2.76115091      2.63003802      1.39956673
C      -1.63399195      2.57347903     -0.85304754
C      -1.53453305     -0.64396963      1.01092199
N      -0.40447877     -0.35068057      1.80492799
C       0.60443125     -0.48496045      1.21522436
N       1.63705558     -0.63289362      0.67169175
C       1.87994037      0.36335769     -0.29958857
C       1.58038333      0.10544359     -1.66503204
C       1.02162385     -1.24079744     -2.11958584
C       2.07280698     -2.02667948     -2.90946676
C      -0.26972777     -1.09844874     -2.93206420
C       1.84388730      1.10095082     -2.62369861
C       2.39601540      2.32255230     -2.25559376
C       2.72091173      2.56446248     -0.92579257
C       2.48870858      1.59450603      0.06704830
C       2.92380997      1.88131610      1.50287691
C       2.19506175      3.09557971      2.08567481
C       4.44277319      2.06034819      1.60057063
H      -2.82025894     -3.06781453      3.32627063
H      -1.85437089     -4.54969189      3.26314312
H      -3.17422106     -4.30976797      2.11525116
H      -0.56822173     -2.73863952      2.32606331
H      -0.01767341     -3.67693798      0.08447650
H      -1.50187582     -4.63789256      0.11613191
H      -0.23332612     -4.93149606      1.31272221
H      -3.53842583     -3.24887940      0.02676441
H      -4.68993754     -1.42912132     -1.14659706
H      -3.91900517      0.88687051     -0.92478774
H      -0.80861509      1.90951722      0.97409868
H      -2.84379263      2.15009152      2.38122725
H      -3.76687909      2.68152919      0.96798296
H      -2.41247867      3.65633866      1.55710317
H      -0.98390932      2.00363420     -1.52383059
H      -1.18561340      3.56327471     -0.71277806
H      -2.59357790      2.71925595     -1.35975441
H       0.76466472     -1.84873612     -1.24727190
H       2.98990434     -2.15374642     -2.32318637
H       1.69715840     -3.02364023     -3.16403576
H       2.34138059     -1.52286331     -3.84465629
H      -0.70291660     -2.08377190     -3.13642792
H      -1.01417749     -0.51248507     -2.38474024
H      -0.10195310     -0.60805994     -3.89683509
H       1.63035265      0.92506899     -3.67539109
H       2.59339542      3.07993136     -3.00996599
H       3.17768652      3.51787865     -0.66953818
H       2.67765442      1.03134690      2.14710266
H       2.44700030      4.02145312      1.55770368
H       1.10935666      2.96594730      2.03093501
H       2.46210223      3.23383019      3.13923921
H       4.96406995      1.18031705      1.20807691
H       4.74753808      2.19170868      2.64491475
H       4.79397573      2.93354568      1.04078244
