29
O=C(O)c1ccccc1Nc1cccc([N+](=O)[O-])c1
O      -1.31339848      2.86352704      0.18905873
C      -2.34512080      2.22699848      0.32116814
O      -3.46984092      2.81859775      0.76290808
C      -2.51312267      0.77712816      0.03231187
C      -3.79487497      0.19960604      0.07901713
C      -3.97270129     -1.15300578     -0.20747703
C      -2.87611643     -1.93548323     -0.55017577
C      -1.59933360     -1.36963561     -0.59630946
C      -1.38627093     -0.01295123     -0.29783889
N      -0.08132776      0.53366653     -0.32844959
C       1.16779203     -0.00490507      0.03781583
C       1.31178130     -1.17194497      0.79937183
C       2.57508625     -1.69070174      1.10412554
C       3.72284126     -1.05186444      0.64190852
C       3.59317048      0.11074611     -0.12523850
N       4.79517497      0.79021836     -0.62166905
O       4.64275686      1.82958485     -1.27911224
O       5.89504588      0.28496765     -0.35379145
C       2.32685187      0.63177567     -0.42839221
H      -3.20929388      3.75191317      0.91146813
H      -4.66583209      0.79934805      0.33362240
H      -4.96709465     -1.59141099     -0.17281074
H      -3.01080404     -2.98730540     -0.79099872
H      -0.76570247     -1.99845965     -0.90064582
H      -0.08440741      1.55996029     -0.29787477
H       0.43816032     -1.68074335      1.19903573
H       2.65796869     -2.59219208      1.70713285
H       4.69853471     -1.46641545      0.88601064
H       2.23007777      1.52898083     -1.03726623
