29
O=C1Nc2ccccc2C(=O)N2CC(O)CC12
O      -0.87352386     -2.39953414      1.40855073
C      -0.33481519     -1.55059662      0.69689731
N       1.00797752     -1.31416711      0.81497391
C       1.78636521     -0.33748648      0.16332394
C       3.15254851     -0.64659501      0.04485118
C       4.03764890      0.22178866     -0.59706408
C       3.57587267      1.42706923     -1.11004472
C       2.23242358      1.76952640     -0.96269468
C       1.32547304      0.90015114     -0.32589526
C      -0.03361823      1.46159086     -0.07649906
O      -0.16805169      2.67690322      0.04745619
N      -1.09724508      0.60310390      0.01913793
C      -2.43207895      1.05489689      0.38498140
C      -3.26640942     -0.22467476      0.47718580
O      -3.27751927     -0.75087237      1.80202676
C      -2.56723538     -1.16999511     -0.49813347
C      -1.08912271     -0.78477069     -0.38299944
H       1.48278821     -1.99808097      1.39331761
H       3.54468606     -1.58489985      0.43264285
H       5.08840572     -0.04262411     -0.69118067
H       4.26175663      2.11401814     -1.60010509
H       1.89351908      2.74031129     -1.32367658
H      -2.78919075      1.70468680     -0.42154025
H      -2.38864575      1.61904162      1.32145924
H      -4.30821273     -0.04136076      0.19877072
H      -2.51639985     -1.35112007      1.93007312
H      -2.75842877     -2.22625034     -0.28716709
H      -2.91222290     -0.95064758     -1.51628368
H      -0.57674460     -0.91941217     -1.34236463
