46
CCCC(=O)OCN1C(=O)NC(c2ccccc2)(c2ccccc2)C1=O
C       6.62535692     -0.04002586      2.65832270
C       6.03782468     -0.29116517      1.27931748
C       4.51182087     -0.25568318      1.30565118
C       3.91827396     -0.51047851     -0.05967180
O       4.55011424     -0.67193354     -1.09338660
O       2.56098073     -0.52761981      0.03192376
C       1.92446475     -0.76043338     -1.22440900
N       0.50584285     -0.75298948     -1.00556048
C      -0.22567855     -1.84490324     -0.68458876
O       0.16886053     -2.99100524     -0.55092374
N      -1.53108634     -1.46964285     -0.50708155
C      -1.72930886     -0.03353544     -0.59409345
C      -2.66417891      0.36267806     -1.74694339
C      -2.95206435      1.72320146     -1.97340819
C      -3.79613786      2.11910850     -3.01270725
C      -4.36688898      1.16429985     -3.84883021
C      -4.09302978     -0.18561255     -3.64761003
C      -3.24865012     -0.58463596     -2.60783815
C      -2.21703737      0.45860029      0.77739261
C      -1.40500454      1.19546624      1.65710599
C      -1.88415962      1.60442548      2.90543444
C      -3.17942725      1.28296783      3.30083192
C      -4.00059494      0.55097217      2.44968879
C      -3.52471433      0.14078456      1.20266249
C      -0.26417087      0.37418376     -0.94960724
O       0.14819784      1.51556248     -1.13146283
H       7.71874179     -0.06977628      2.61567375
H       6.29227220     -0.80120420      3.37112794
H       6.32691195      0.94218509      3.03882912
H       6.41792734      0.46445055      0.58111435
H       6.38293937     -1.26448504      0.91019658
H       4.16850607      0.72683796      1.64869262
H       4.13668502     -1.02457471      1.99092624
H       2.22326735     -1.73710782     -1.62149179
H       2.18012068      0.04066266     -1.92720179
H      -2.20506910     -2.11649232     -0.12463134
H      -2.51336568      2.49237051     -1.33753449
H      -4.00403092      3.17474323     -3.16957723
H      -5.02225670      1.47283935     -4.65920296
H      -4.53542906     -0.93130903     -4.30371897
H      -3.05514368     -1.64831118     -2.48935490
H      -0.38615899      1.47351244      1.39533792
H      -1.24181315      2.17773409      3.56985113
H      -3.54829252      1.60442971      4.27138497
H      -5.01367968      0.30060704      2.75417571
H      -4.19173700     -0.42675574      0.55519445
