26
C=CCOc1ccc(CC(=O)O)cc1Cl
C       5.32364543      0.54222502     -0.20993027
C       4.37434795     -0.07277889      0.50804117
C       2.95144832      0.38598898      0.61786923
O       2.12198843     -0.70371773      0.22565646
C       0.76489766     -0.51309446      0.23739878
C       0.12987894      0.65751044      0.66366470
C      -1.26673312      0.75872833      0.64350179
C      -2.05681474     -0.30878070      0.20055768
C      -3.56217024     -0.18987897      0.16618918
C      -4.09243066      0.50486496     -1.06415773
O      -3.46408479      1.06560530     -1.94542722
O      -5.44202963      0.47496477     -1.11317347
C      -1.42353364     -1.47976097     -0.23317843
C      -0.02777833     -1.58118677     -0.21089744
Cl      0.68060813     -3.06437964     -0.75302313
H       6.33337147      0.14454314     -0.24771452
H       5.11738725      1.44164382     -0.78154307
H       4.62824406     -0.97752337      1.05590683
H       2.77447020      1.25238384     -0.03060426
H       2.75533988      0.65299467      1.66288889
H       0.68933969      1.51755380      1.01716342
H      -1.73219092      1.68679375      0.97154730
H      -4.00623595     -1.19132371      0.21579197
H      -3.90045727      0.36452219      1.04955142
H      -5.65674177      0.95191470     -1.94302272
H      -2.01376635     -2.31981251     -0.59272987
