22
O=C(Nc1ncccn1)c1cnccn1
O      -0.22988219      0.56823222      2.11301814
C       0.31119401      0.24519378      1.06337566
N      -0.28290933     -0.05760285     -0.13403481
C      -1.63541206     -0.06284547     -0.41502829
N      -1.93567175     -0.40060347     -1.68042909
C      -3.24259863     -0.42069083     -2.00562095
C      -4.24932902     -0.11896796     -1.12245048
C      -3.83592442      0.21276617      0.14334218
N      -2.54419953      0.24686809      0.51569691
C       1.79741732      0.14922395      1.00855339
C       2.55920990      0.42305426      2.13493269
N       3.91570129      0.34708209      2.12642810
C       4.46872978     -0.01342245      0.94521526
C       3.70741576     -0.28734344     -0.18140545
N       2.35551685     -0.21507750     -0.18525556
H       0.31219004     -0.30777687     -0.91279606
H      -3.46060562     -0.69638192     -3.03322957
H      -5.29254766     -0.14075220     -1.40258810
H      -4.54739984      0.46941005      0.92262558
H       2.10531743      0.71139344      3.07745815
H       5.55129881     -0.07705752      0.92767388
H       4.17248886     -0.57470155     -1.11826456
