36
O=c1c2cc(Cl)ccc2[nH]c2cc3c(=O)c4cc(Cl)ccc4[nH]c3cc12
O      -2.64211249     -1.04955914      2.28236156
C      -2.55981706     -0.58120629      1.15178481
C      -3.78082293     -0.30536767      0.35488374
C      -5.04350934     -0.58891770      0.88448566
C      -6.17422218     -0.31455260      0.12201858
Cl     -7.73688924     -0.65497811      0.75549712
C      -6.05257291      0.24124152     -1.15224336
C      -4.78688554      0.52302099     -1.67631668
C      -3.63775049      0.23585322     -0.93427887
N      -2.36518557      0.55928842     -1.42773578
C      -1.18062071      0.25462881     -0.74042655
C       0.06440667      0.55154202     -1.29560172
C       1.23326364      0.28363148     -0.57042167
C       2.55982469      0.58105382     -1.16611285
O       2.64212139      1.04936716     -2.29670579
C       3.78082395      0.30535015     -0.36915418
C       5.04350311      0.58906152     -0.89868640
C       6.17421062      0.31481772     -0.13616679
Cl      7.73686951      0.65543547     -0.76956085
C       6.05256433     -0.24101086      1.13808036
C       4.78688339     -0.52294756      1.66208551
C       3.63775123     -0.23590307      0.91999474
N       2.36519629     -0.55946392      1.41339608
C       1.18063083     -0.25485661      0.72606598
C      -0.06439540     -0.55178111      1.28123712
C      -1.23325330     -0.28385368      0.55606407
H      -5.13695582     -1.01463001      1.88043679
H      -6.93994651      0.46297947     -1.74047390
H      -4.71065469      0.96932911     -2.66459035
H      -2.28635581      0.74681078     -2.42056355
H       0.13829376      0.98862908     -2.28863095
H       5.13694750      1.01480557     -1.89462404
H       6.93993722     -0.46265001      1.72635052
H       4.71065254     -0.96927281      2.65035117
H       2.28634951     -0.74703973      2.40621283
H      -0.13828020     -0.98885544      2.27427212
