29
O=C(O)c1cccnc1Nc1cccc(C(F)(F)F)c1
O       2.39235632     -2.40845876     -1.32414122
C       3.12323894     -1.45754789     -1.10758814
O       4.36215991     -1.39766600     -1.62929340
C       2.78852615     -0.28113628     -0.27483579
C       3.80578214      0.55586980      0.20790813
C       3.48066198      1.62988763      1.02468532
C       2.14941964      1.82506420      1.33040353
N       1.15066515      1.03613513      0.87583680
C       1.45183570     -0.01872291      0.07748411
N       0.40869542     -0.81012885     -0.45937404
C      -0.99126397     -0.71224112     -0.34939318
C      -1.76997145     -1.82558145     -0.70412284
C      -3.16547114     -1.78389479     -0.65696460
C      -3.81274048     -0.61537377     -0.26637766
C      -3.06728235      0.51986288      0.07510964
C      -3.74656907      1.80746093      0.46483118
F      -5.04845962      1.63860430      0.83569709
F      -3.76817941      2.71351162     -0.55228785
F      -3.14616852      2.43652957      1.51363947
C      -1.66219077      0.46003367      0.01359711
H       4.44561322     -2.21790196     -2.16043167
H       4.84724539      0.37140505     -0.04238445
H       4.24456278      2.29346351      1.41424527
H       1.83325241      2.64745555      1.96654641
H       0.72716108     -1.76578157     -0.62818074
H      -1.28931945     -2.74805961     -1.02322310
H      -3.74350879     -2.66293614     -0.93065552
H      -4.90073881     -0.59015913     -0.23641524
H      -1.09931240      1.36030642      0.24891224
