33
C/C=C/CC1(C/C=C/C)C(=O)NC(=O)NC1=O
C       4.38413103     -1.18046915      0.39158380
C       2.98179805     -1.20017174     -0.12291119
C       1.91204260     -0.82876136      0.59646042
C       0.49178998     -0.87248104      0.08070837
C      -0.10877771      0.51443572     -0.25028714
C      -1.56742584      0.38428236     -0.77880901
C      -2.52515723     -0.34597743      0.12816352
C      -3.14738116     -1.48604701     -0.20968059
C      -4.09709440     -2.21402217      0.68614437
C      -0.13014411      1.41362285      0.97634389
O      -0.18769918      1.00257793      2.13335257
N      -0.14502967      2.75904665      0.73486702
C       0.46346317      3.32956058     -0.33716660
O       0.83791137      4.49710262     -0.31502060
N       0.70454027      2.52554525     -1.40605018
C       0.66476062      1.15775353     -1.39285270
O       1.16230364      0.52804442     -2.32465931
H       4.81055102     -2.18729661      0.34947622
H       4.99847141     -0.51981045     -0.22767884
H       4.44053593     -0.82843495      1.42643901
H       2.85240638     -1.53701317     -1.15050854
H       2.04456611     -0.50307219      1.62794953
H      -0.10403892     -1.37749984      0.85169119
H       0.44235555     -1.51939595     -0.80573366
H      -1.55149369     -0.10607245     -1.76257360
H      -1.99253268      1.38134451     -0.95980765
H      -2.71580319      0.09436075      1.10652976
H      -2.97035905     -1.93728693     -1.18400098
H      -4.22762783     -1.70997754      1.64892030
H      -3.72632183     -3.22552528      0.87790817
H      -5.07703461     -2.29147771      0.20546035
H      -0.15644485      3.34087527      1.56250950
H       1.23873883      2.94224051     -2.15676742
