20
CCOC(=O)c1cnc(=S)[nH]c1
C      -3.53597564      0.43050733     -0.83621504
C      -2.64200633     -0.45476588      0.00981642
O      -1.28754395     -0.01671057     -0.16270208
C      -0.37596330     -0.72874760      0.54414938
O      -0.62278673     -1.67171237      1.28107906
C       0.97760023     -0.20349957      0.30023811
C       1.31553655      0.93092595     -0.58070379
N       2.50296372      1.39949004     -0.80104045
C       3.56283667      0.79977053     -0.16567969
S       5.15611053      1.28367127     -0.34296054
N       3.30055709     -0.26494467      0.66864670
C       2.04122617     -0.75446392      0.89626232
H      -4.58409376      0.13451202     -0.73784531
H      -3.43471107      1.47893952     -0.53680541
H      -3.24916970      0.37176064     -1.89139366
H      -2.92641610     -0.36881253      1.06451566
H      -2.73739062     -1.49675851     -0.31548431
H       0.46954334      1.41656563     -1.09352448
H       4.10359530     -0.68691801      1.12354532
H       1.96608761     -1.59880931      1.57610180
