28
CC(CC=O)CC(C)(C)C
C       2.10710210     -0.54374684     -1.41677817
C       1.16253706      0.02046052     -0.34436295
C       1.89556442      0.08104981      1.00814409
C       2.88491203      1.22017875      1.11854970
O       3.03883876      2.10230059      0.28107794
C      -0.10449485     -0.86760524     -0.25632028
C      -1.45619785     -0.13556401     -0.01041842
C      -2.55554953     -1.20571975      0.15164929
C      -1.82354206      0.74868010     -1.21646985
C      -1.43263294      0.72835226      1.25829097
H       2.40499291     -1.57163001     -1.18254101
H       1.61808668     -0.54823258     -2.39704683
H       3.01583881      0.05936608     -1.50747684
H       0.88857035      1.03272291     -0.65811401
H       2.44201886     -0.85110667      1.19284035
H       1.19225133      0.21332190      1.83513604
H       3.47643983      1.22924734      2.05048830
H      -0.21017204     -1.43696864     -1.19054957
H       0.04473774     -1.62381149      0.52679962
H      -2.62636746     -1.83931610     -0.73971939
H      -3.53782347     -0.74654861      0.31125965
H      -2.35050929     -1.85655322      1.00916754
H      -1.12472126      1.58116472     -1.34311610
H      -2.82294205      1.18270836     -1.09567474
H      -1.82586339      0.16843359     -2.14596806
H      -0.71593456      1.55177250      1.17521566
H      -1.16978005      0.13121422      2.13817660
H      -2.41536010      1.17582951      1.44776045
