23
CC(Nc1ccccc1Cl)C(=O)O
C      -2.11724743      1.34045999     -1.07717156
C      -1.63614923      0.37058172     -0.00460416
N      -0.54962395     -0.46536338     -0.56270204
C       0.77143153     -0.25183899     -0.12549819
C       1.28275846      1.03618199      0.08777667
C       2.61889872      1.23626466      0.45396491
C       3.48009543      0.15112418      0.59004370
C       3.00914930     -1.13652088      0.34857847
C       1.67379129     -1.33266338     -0.01734310
Cl      1.14227617     -2.95659860     -0.30556194
C      -2.82010284     -0.50324128      0.44133570
O      -3.91010196     -0.10787140      0.82593388
O      -2.56166686     -1.83201485      0.39409132
H      -2.91300467      1.98706797     -0.69195509
H      -2.52004725      0.80331053     -1.94381061
H      -1.30448013      1.98102977     -1.43350529
H      -1.30644942      0.90526054      0.89414222
H      -0.79043024     -1.46039311     -0.46447239
H       0.65430274      1.91191696     -0.04391768
H       2.98771987      2.24589602      0.61926256
H       4.51836978      0.30911221      0.87017790
H       3.68377417     -1.98327568      0.44054217
H      -3.39326349     -2.24842498      0.70469257
