30
Oc1ccc(C2CCCCC2)c(O)c1
O      -5.06803812      0.60178349     -0.02601786
C      -3.71967203      0.39885852      0.00732316
C      -2.84331939      1.24784296     -0.65664702
C      -1.46924362      1.00064180     -0.59442479
C      -0.95861442     -0.09317301      0.12907203
C       0.53971910     -0.35291458      0.19006018
C       1.12588605     -0.64561769     -1.20326368
C       2.62899246     -0.91058531     -1.13223013
C       3.37084686      0.23389860     -0.44793444
C       2.79519347      0.53314253      0.93319819
C       1.29281593      0.80444260      0.87122769
C      -1.87332935     -0.92910369      0.78700828
O      -1.40806913     -2.00056515      1.49853814
C      -3.24693047     -0.68893524      0.72966354
H      -5.24836807      1.39089138     -0.56311206
H      -3.20318238      2.10039515     -1.22363064
H      -0.79476823      1.67371227     -1.11918690
H       0.72225783     -1.24699430      0.80032778
H       0.94889429      0.19673058     -1.88374333
H       0.62495226     -1.51540761     -1.64616889
H       2.80971159     -1.84310774     -0.58353590
H       3.02547708     -1.05390418     -2.14374262
H       4.43345451     -0.01800534     -0.35736088
H       3.30770873      1.13389615     -1.07195200
H       2.98544952     -0.31654008      1.60040575
H       3.30791052      1.39949842      1.36614792
H       0.90934329      0.95498968      1.88804578
H       1.12722446      1.74583706      0.33244598
H      -2.16575740     -2.46820385      1.88639507
H      -3.95654534     -1.33350339      1.23732940
