28
CC(C)CNC(=O)N1CCNC1=O
C      -2.49954803      0.03010374     -2.21035849
C      -2.84607660      0.30639286     -0.74695686
C      -3.17982835     -0.99558612     -0.01739272
C      -1.73979229      1.10185907     -0.03884680
N      -0.46158883      0.42428699     -0.01625288
C       0.69781242      1.09532812      0.28077339
O       0.75159172      2.31809762      0.39753352
N       1.81071528      0.28885251      0.43293428
C       3.11011487      0.85676798      0.71439025
C       4.04815964     -0.33681549      0.66787316
N       3.17733805     -1.45920080      0.87421356
C       1.86118662     -1.10525200      0.60195274
O       0.93957430     -1.90067001      0.50970592
H      -2.27793588      0.96265575     -2.73989572
H      -1.63014258     -0.62926952     -2.30313057
H      -3.34013514     -0.45191785     -2.72097999
H      -3.74998876      0.92940445     -0.73237880
H      -3.42167777     -0.80223119      1.03290996
H      -4.04911706     -1.47962319     -0.47562913
H      -2.34905257     -1.70758340     -0.05118141
H      -2.02030799      1.30096500      1.00215428
H      -1.61065676      2.07471907     -0.52811313
H      -0.44609534     -0.57126053      0.19353403
H       3.36908634      1.63712789     -0.00764904
H       3.07675792      1.30152756      1.71582087
H       4.50687469     -0.44665547     -0.32013560
H       4.82693986     -0.30789131      1.43356404
H       3.44579223     -2.43413175      0.82650800
