32
CCCCCOC(=O)CCCC
C      -5.46531375      0.98121809     -0.20809696
C      -4.19779028      0.50151388      0.48094897
C      -3.09154262      0.19856641     -0.52917497
C      -1.82045647     -0.28279002      0.16685769
C      -0.71109032     -0.58724148     -0.83380967
O       0.43860721     -1.02934502     -0.10020516
C       1.51738727     -1.32227779     -0.87680716
O       1.55337832     -1.24354994     -2.09713298
C       2.67774561     -1.76853835     -0.02351870
C       3.25456643     -0.63501057      0.81967546
C       3.94099447      0.43590397     -0.03101539
C       4.55157467      1.52619327      0.83572637
H      -6.24291674      1.19195583      0.53273728
H      -5.84902310      0.22165815     -0.89669870
H      -5.27992050      1.89833993     -0.77629884
H      -4.42469510     -0.39752926      1.06572220
H      -3.85873102      1.26991344      1.18545386
H      -3.43715226     -0.56751659     -1.23394272
H      -2.87129406      1.09980431     -1.11423189
H      -1.46803873      0.47308983      0.87989450
H      -2.02943375     -1.18121150      0.76107862
H      -0.45787575      0.31574695     -1.40169126
H      -1.03078261     -1.37788902     -1.52265318
H       3.44721118     -2.19350295     -0.67833546
H       2.32989482     -2.58529008      0.61966867
H       3.98430688     -1.05962490      1.51985980
H       2.46469961     -0.17246212      1.42373877
H       4.72888007     -0.02139550     -0.64071570
H       3.22082248      0.89224683     -0.71942525
H       5.03699045      2.28098287      0.20915423
H       3.78437882      2.02532889      1.43624237
H       5.30461876      1.11271244      1.51415856
