87
CCCCCCCCCCCCCCC(CO)CCCCCCCCCCCC
C     -11.63088805      1.25815814     -1.33993139
C     -11.78372033     -0.10762559     -0.68836529
C     -10.45112657     -0.82338218     -0.45169847
C      -9.54464658     -0.09589447      0.54495970
C      -8.31871430     -0.91637214      0.96265301
C      -7.32590384     -1.14793708     -0.17957420
C      -6.10557292     -1.97674825      0.23606901
C      -5.23632172     -1.37729667      1.34625494
C      -4.70653763      0.03769995      1.09013618
C      -3.80161123      0.13144174     -0.14060078
C      -3.25906822      1.54273265     -0.39155795
C      -2.39862157      2.13792205      0.72790033
C      -1.19337918      1.29337878      1.15730299
C      -0.20157330      1.03430090      0.01805292
C       1.14531179      0.41318339      0.46286387
C       0.96239738     -0.94392278      1.16723206
O       0.48790799     -0.75723486      2.49403289
C       2.09577575      0.21953284     -0.74338847
C       2.54853406      1.53154773     -1.39455472
C       3.55558614      1.33380499     -2.53485793
C       4.86451047      0.62764495     -2.16308602
C       5.63621877      1.32862670     -1.04211692
C       7.01778213      0.71860688     -0.77979023
C       6.95043392     -0.70190040     -0.21111385
C       8.32954144     -1.30100902      0.08654092
C       9.04875596     -0.61603743      1.25152945
C      10.32112721     -1.34922267      1.69045543
C      11.41013132     -1.48227161      0.62291206
C      11.92536339     -0.14616001      0.11179153
H     -12.61578970      1.67628266     -1.57187878
H     -11.06426941      1.18688482     -2.27369926
H     -11.11906955      1.96320362     -0.67787290
H     -12.40458733     -0.73692360     -1.33723364
H     -12.32277334     -0.00075900      0.26009209
H      -9.93705288     -0.94609999     -1.41146444
H     -10.66614542     -1.83041550     -0.07433783
H      -9.21092790      0.85916530      0.12429027
H     -10.12135788      0.13804879      1.44837985
H      -7.82138754     -0.37617356      1.77613451
H      -8.64343787     -1.87987477      1.37322156
H      -7.00475999     -0.18588828     -0.59420811
H      -7.82369366     -1.68480379     -0.99509021
H      -6.44668191     -2.96673264      0.56492383
H      -5.48658309     -2.15473914     -0.65141041
H      -5.80132518     -1.37294872      2.28589508
H      -4.38425060     -2.04816632      1.51469129
H      -5.53988999      0.74304732      0.99605775
H      -4.14510618      0.34112211      1.98078621
H      -4.36533203     -0.16503944     -1.03223170
H      -2.97354638     -0.58044010     -0.04907753
H      -4.10367298      2.21955370     -0.57118590
H      -2.68109390      1.53198052     -1.32337049
H      -3.02562234      2.32570497      1.60755567
H      -2.04260728      3.12303488      0.40050561
H      -0.67920925      1.82418278      1.96814915
H      -1.55108293      0.34710979      1.57440326
H      -0.66459242      0.38160980     -0.73183029
H      -0.00821399      1.99294629     -0.47549707
H       1.61698175      1.10711456      1.17173777
H       0.25563843     -1.57984114      0.62349142
H       1.91685574     -1.47533316      1.24271755
H       0.40596412     -1.63899013      2.89488824
H       1.61523822     -0.41663505     -1.49732963
H       2.98196644     -0.32133352     -0.39240770
H       2.97194040      2.19767388     -0.63428857
H       1.68271115      2.05391587     -1.81630493
H       3.07254181      0.76472117     -3.33909944
H       3.79458709      2.31837139     -2.95655142
H       4.65131577     -0.41062071     -1.89009233
H       5.49470370      0.58509427     -3.06039768
H       5.05782742      1.30918266     -0.11149042
H       5.77263654      2.38332180     -1.31039259
H       7.60439604      0.71963883     -1.70626086
H       7.53944936      1.37346489     -0.07296901
H       6.45312173     -1.36027498     -0.93245879
H       6.33984680     -0.71034384      0.70009129
H       8.19492178     -2.36289396      0.32723737
H       8.94403480     -1.25570408     -0.81976326
H       8.37115485     -0.56874998      2.11340258
H       9.29309650      0.41946871      0.99336208
H      10.04989868     -2.35423850      2.03698425
H      10.73908126     -0.82652671      2.55994583
H      11.04861804     -2.08191798     -0.21925202
H      12.25126939     -2.03597169      1.05736112
H      11.15113403      0.40009738     -0.43435070
H      12.76504715     -0.30407535     -0.57289522
H      12.27639168      0.48094630      0.93707218
