42
CNC1CN(c2c(F)cc3c(=O)c(C(=O)O)cn(C4CC4)c3c2F)C1
C       6.09729714      1.78848707      0.75351132
N       4.79374777      1.94653579      0.11468038
C       4.18916535      0.61745299     -0.08571675
C       3.42117060      0.16344360      1.17195681
N       2.33680188     -0.17724887      0.28285583
C       0.99262232     -0.44946282      0.63955572
C       0.64375799     -0.85776941      1.93491322
F       1.58043024     -0.98399631      2.88540472
C      -0.66931414     -1.15025885      2.28400643
C      -1.67685911     -1.03917376      1.32168344
C      -3.06828631     -1.38281765      1.70008847
O      -3.36256825     -1.69376815      2.85259660
C      -4.10713647     -1.36911682      0.65142734
C      -5.50703232     -1.78603401      0.87482924
O      -6.34923086     -1.80712633     -0.01099677
O      -5.78858415     -2.14676944      2.14595023
C      -3.73304111     -0.95568863     -0.56755385
N      -2.46986039     -0.52191379     -0.92804248
C      -2.25590576     -0.09261386     -2.32389028
C      -1.88977363      1.33531712     -2.65427366
C      -3.22410482      0.79985049     -3.06348258
C      -1.39397379     -0.63130908      0.00462344
C      -0.04624703     -0.35961090     -0.30997561
F       0.28289550     -0.02731285     -1.56870329
C       2.78571290      0.76977814     -0.70900587
H       6.53902323      2.77494346      0.93442026
H       6.78469028      1.22243358      0.11356487
H       6.01243141      1.28293078      1.72223030
H       4.92057237      2.46438873     -0.75521691
H       4.81730351     -0.13973604     -0.56702167
H       3.84366479     -0.70255232      1.68669027
H       3.14409138      0.94373180      1.88963494
H      -0.88886301     -1.47119303      3.30157018
H      -5.02684397     -2.05214030      2.77037235
H      -4.45737845     -0.92716363     -1.38055349
H      -1.78177288     -0.87279102     -2.91381579
H      -1.14221977      1.49535071     -3.42114119
H      -1.85134114      2.04887436     -1.83881555
H      -4.09219330      1.18941122     -2.54586613
H      -3.39020608      0.60447265     -4.11713488
H       2.29589417      1.74713172     -0.60046131
H       2.69146395      0.40303365     -1.73649209
