41
Cc1ccc(OP(=O)(Oc2ccccc2)Oc2ccccc2)cc1
C       6.20706732     -0.30786115     -0.65141014
C       4.74196917     -0.00748909     -0.53744454
C       3.91381441     -0.80582004      0.26045525
C       2.54180798     -0.54873193      0.34630188
C       1.98699421      0.50352107     -0.37655527
O       0.66272798      0.83506841     -0.36279253
P      -0.48895129     -0.00052931      0.39818357
O      -0.29169965     -0.15989930      1.88039201
O      -0.55697195     -1.37891404     -0.43807514
C      -1.46577321     -2.37571113     -0.22669499
C      -1.42072096     -3.43955017     -1.12950843
C      -2.30882233     -4.50809141     -1.00264568
C      -3.24333532     -4.51479344      0.03067261
C      -3.28668819     -3.45452862      0.93529796
C      -2.39783207     -2.38366047      0.80875424
O      -1.84381962      0.76058620     -0.03656279
C      -2.18257013      2.02786909      0.34223229
C      -3.34872568      2.54071310     -0.22867147
C      -3.78124616      3.82812654      0.09085642
C      -3.04757054      4.60470863      0.98514276
C      -1.88464798      4.09204903      1.55887934
C      -1.45046206      2.80283533      1.23912243
C       2.80326910      1.29717756     -1.18227587
C       4.17301951      1.04038596     -1.26862916
H       6.77921852      0.60544936     -0.84563282
H       6.38147850     -1.01514452     -1.46801206
H       6.59078120     -0.73923557      0.27912091
H       4.33280729     -1.63494697      0.82719441
H       1.94164589     -1.18597961      0.98890245
H      -0.69222488     -3.43771844     -1.93638628
H      -2.27034611     -5.33371508     -1.70830150
H      -3.93578211     -5.34636719      0.13356063
H      -4.01249098     -3.46172749      1.74496707
H      -2.45649593     -1.58067937      1.53745671
H      -3.92386055      1.93706918     -0.92622754
H      -4.68936977      4.22328683     -0.35662913
H      -3.38233923      5.60758611      1.23762985
H      -1.31438106      4.69587304      2.26073373
H      -0.54491004      2.43537489      1.71261790
H       2.37349187      2.11838360     -1.75031015
H       4.79194486      1.66503040     -1.90864346
