24
CCCCOC(=O)C(C)O
C      -3.59955451     -0.12405564      1.03985588
C      -2.26138321     -0.57581447      0.47624518
C      -1.84175055      0.27993498     -0.72116326
C      -0.51664611     -0.18005192     -1.32310584
O       0.52350511     -0.00857224     -0.35187469
C       1.75935239     -0.37911358     -0.78184583
O       2.01366659     -0.85443291     -1.88376788
C       2.81295537     -0.19926239      0.31444904
C       2.80671169      1.20883316      0.88459192
O       4.12682079     -0.46115168     -0.18429752
H      -3.55089169      0.91510682      1.38059233
H      -3.88158838     -0.74860746      1.89327311
H      -4.38946042     -0.20234186      0.28603567
H      -2.33545564     -1.62681314      0.17365689
H      -1.50456934     -0.51838711      1.26686007
H      -1.74813762      1.32322522     -0.39578385
H      -2.61844134      0.24053503     -1.49364091
H      -0.58014104     -1.23441858     -1.61683024
H      -0.29034150      0.42937455     -2.20576685
H       2.60991446     -0.93585665      1.09868068
H       3.60690974      1.32986840      1.62258160
H       2.98566697      1.94812050      0.09560835
H       1.85264243      1.44846332      1.36401633
H       4.02021582     -1.07458236     -0.93837021
