31
O=C1c2c(Cl)c(Cl)c(Cl)c(Cl)c2C2=Nc3cccc4cccc(c34)N12
O      -1.71407501      2.35828026      1.25125050
C      -1.59257652      1.30565423      0.65584245
C      -2.73019240      0.52091122      0.14152638
C      -4.09407233      0.76443999      0.20267346
Cl     -4.70570874      2.18174197      0.97865854
C      -4.95737256     -0.18013072     -0.38737602
Cl     -6.68010223      0.07901753     -0.33787430
C      -4.43438825     -1.33887741     -1.02048722
Cl     -5.51748746     -2.49613475     -1.74485809
C      -3.04440166     -1.56129981     -1.06805811
Cl     -2.38173495     -2.96214744     -1.83170818
C      -2.21972837     -0.61474719     -0.47909249
C      -0.76885395     -0.54414307     -0.35548470
N       0.08080884     -1.40692587     -0.80049126
C       1.44439484     -1.12997083     -0.56380474
C       2.40177448     -2.03374239     -1.02609264
C       3.75906614     -1.79597655     -0.81218806
C       4.16917948     -0.64796061     -0.13170602
C       3.22515461      0.27619695      0.34301409
C       3.60297640      1.43907535      1.03014820
C       2.63743941      2.33715054      1.48870850
C       1.28123593      2.08888416      1.26886302
C       0.88364417      0.93657302      0.58663753
C       1.85167671      0.02838286      0.12243220
N      -0.46329925      0.60838241      0.32158080
H       2.08192473     -2.92732280     -1.55579554
H       4.49706836     -2.50624095     -1.17632266
H       5.23260748     -0.47995842      0.02541747
H       4.65357784      1.65458763      1.21372831
H       2.94226455      3.23579894      2.02045150
H       0.55919971      2.81050175      1.64040708
