28
Cc1ccc(C(C)C)c(O)c1C(=O)O
C       3.30992473     -0.56723842     -1.29281987
C       1.89840387     -0.35927334     -0.80983304
C       0.85375102     -0.75339663     -1.66115182
C      -0.47965214     -0.59331649     -1.28762140
C      -0.82014662     -0.03288364     -0.04956475
C      -2.28464589      0.13375670      0.33815177
C      -3.01595662      1.07678445     -0.62245933
C      -2.99982037     -1.21829291      0.42370310
C       0.22350488      0.36372275      0.80900751
O      -0.15922211      0.90724268      2.01211882
C       1.58493321      0.20561842      0.44909564
C       2.69583342      0.61065406      1.37058225
O       3.88908717      0.42275756      1.23004283
O       2.26293748      1.26553351      2.47090682
H       3.33055082     -0.96813915     -2.31246324
H       3.85244710      0.38302900     -1.31688022
H       3.83095604     -1.28787581     -0.65495398
H       1.07167489     -1.19336230     -2.63320983
H      -1.25556805     -0.91354103     -1.98013621
H      -2.35736758      0.58704321      1.33336529
H      -4.04230538      1.25171448     -0.28174135
H      -2.51092180      2.04764145     -0.67693304
H      -3.06960786      0.67011617     -1.63805639
H      -2.48350504     -1.89013068      1.11842790
H      -4.02601519     -1.08778020      0.78421154
H      -3.05231674     -1.71894406     -0.54907431
H       0.64876551      1.19634585      2.48450193
H       3.10428125      1.46221437      2.94278339
