14
N=C(N)N.O=[N+]([O-])O
N       0.31335306      1.42364081     -0.38212818
C       0.10787074      0.21477316     -0.02355206
N       1.03759662     -0.48936150      0.63963446
N      -1.01017008     -0.49085436     -0.25167413
O      -0.69433402      1.02258784      0.22028592
N      -0.27778357     -0.12881476      0.28537282
O      -0.62877046     -1.10065086      0.94261171
O       0.79687582     -0.35057074     -0.55460412
H      -0.50006599      1.77573628     -0.88950793
H       1.90902746      0.03318469      0.65515216
H       1.18739887     -1.40753895      0.24009547
H      -1.81868611      0.06617324     -0.49706112
H      -1.22632457     -1.12575336      0.50904132
H       0.80401223      0.55744853     -0.89366633
