71
C=C(C)C(=O)OCCCOc1ccc(C(C)(C)c2ccc(OCCCOC(=O)C(=C)C)cc2)cc1
C      -8.53167405      0.52074087      0.54713182
C      -8.34039940      0.69948314     -0.77173951
C      -8.71857920      1.97035460     -1.47221614
C      -7.73684783     -0.34836443     -1.64720999
O      -7.58032627     -0.20182296     -2.85042438
O      -7.38662617     -1.44763475     -0.93353078
C      -6.74856196     -2.47973990     -1.69808911
C      -6.18039749     -3.52090034     -0.73724384
C      -5.11744630     -2.93338961      0.18911891
O      -4.01272286     -2.48450920     -0.60729760
C      -3.33458452     -1.48865369      0.03590118
C      -3.65459372     -0.16327794     -0.23538862
C      -2.93934143      0.86631612      0.38260381
C      -1.87815253      0.58456119      1.26190199
C      -1.03284667      1.69137604      1.94090900
C      -1.30006233      1.58527303      3.46599486
C      -1.45156045      3.13003803      1.53742742
C       0.46035334      1.54909576      1.55960441
C       0.82765502      1.46381059      0.20140209
C       2.16514079      1.33587574     -0.19263535
C       3.17402496      1.29469199      0.76430375
O       4.51348430      1.17029385      0.51968368
C       4.90834014      1.00280913     -0.84191052
C       6.42170409      0.83269850     -0.89842861
C       6.88300112     -0.41544936     -0.15138070
O       8.30580038     -0.57109870     -0.28184160
C       8.72677391     -1.21463790     -1.39967158
O       8.00423453     -1.64327735     -2.28864683
C      10.21396485     -1.33800152     -1.43304098
C      11.00371840     -0.86325269     -0.45432734
C      10.76651095     -2.02982258     -2.64288413
C       2.82984379      1.38890063      2.11258867
C       1.49256263      1.51488735      2.50871281
C      -1.56895919     -0.77231912      1.50247093
C      -2.28832166     -1.80212701      0.89176692
H      -8.25905554     -0.39915110      1.05558137
H      -8.97151413      1.30003942      1.16143536
H      -9.17206642      2.69518072     -0.78742861
H      -9.44359049      1.77109030     -2.26808136
H      -7.83421849      2.44129503     -1.91463629
H      -7.49805657     -2.95221993     -2.34302130
H      -5.95267616     -2.06031295     -2.32464093
H      -5.74597456     -4.33813018     -1.32439288
H      -6.98886420     -3.93263162     -0.12233245
H      -5.54996750     -2.12505443      0.79337882
H      -4.75812193     -3.71393789      0.87055514
H      -4.45373165      0.07215402     -0.93207431
H      -3.22400768      1.88697964      0.14371304
H      -2.37426295      1.64368039      3.68174380
H      -0.93599322      0.64200402      3.89024412
H      -0.81742456      2.40111058      4.01860178
H      -1.37177044      3.29853164      0.45609983
H      -0.81374918      3.87929196      2.02454187
H      -2.48604118      3.34545812      1.83090030
H       0.06306560      1.48690238     -0.57418941
H       2.37549406      1.27050175     -1.25477096
H       4.42592379      0.11726143     -1.27440213
H       4.63402975      1.89334008     -1.42052495
H       6.74593921      0.79022258     -1.94442006
H       6.91600369      1.70659204     -0.45532745
H       6.36026789     -1.31545563     -0.49764363
H       6.67505006     -0.31817361      0.91936550
H      10.60507905     -0.36080177      0.42159446
H      12.08324760     -0.96656487     -0.50344491
H      11.86129182     -2.05876315     -2.63234936
H      10.40857918     -3.06356680     -2.69119419
H      10.46019617     -1.51049339     -3.55707062
H       3.61126509      1.36320770      2.86853187
H       1.28877582      1.58551851      3.57325318
H      -0.74003705     -1.03775418      2.15635467
H      -2.01819406     -2.83780518      1.07243606
