40
CCCCCCCCOC(=O)c1ccc(O)c(Cl)c1
C      -5.97733326     -1.56732979     -1.14622400
C      -4.89853722     -0.60484550     -0.67301116
C      -4.86476596     -0.51259727      0.85301155
C      -3.87410897      0.53028520      1.37871544
C      -2.41189595      0.18256210      1.08649145
C      -1.46413806      1.19923029      1.72863245
C       0.01278426      0.84281880      1.55784062
C       0.49029002      0.87958457      0.10967968
O       1.90431154      0.63153567      0.10664001
C       2.46958958      0.64551389     -1.12541188
O       1.88592086      0.84472187     -2.17847989
C       3.93111982      0.38027550     -1.03306181
C       4.67502092      0.35885127     -2.22370016
C       6.04979548      0.11462755     -2.19463396
C       6.68057073     -0.10803480     -0.97627636
O       8.02715764     -0.34252796     -0.99932061
C       5.94957589     -0.08883102      0.21384517
Cl      6.73673955     -0.36567748      1.72310405
C       4.57628072      0.15451915      0.19150417
H      -6.96852456     -1.23853985     -0.81793856
H      -5.98300360     -1.62229460     -2.23934403
H      -5.80223188     -2.57502077     -0.75602300
H      -5.08738726      0.38566597     -1.10260210
H      -3.93177346     -0.94840694     -1.05588330
H      -4.62535326     -1.49473125      1.27863593
H      -5.86499978     -0.24678954      1.21734142
H      -4.01231453      0.61420534      2.46388079
H      -4.11343311      1.51251996      0.95331809
H      -2.18899860     -0.82032608      1.46964329
H      -2.24921921      0.16413597      0.00436108
H      -1.65245523      2.19588082      1.31124715
H      -1.67830839      1.26118496      2.80281035
H       0.21516812     -0.14749813      1.98474323
H       0.61761692      1.54410885      2.14697943
H       0.29194323      1.86469619     -0.32826920
H      -0.00847360      0.10414556     -0.48143433
H       4.18499559      0.53279316     -3.18081701
H       6.62359925      0.09852190     -3.11761663
H       8.31534279     -0.47782264     -0.07704471
H       4.01943299      0.16670763      1.12466734
