56
CN(C)[C@@H]1C(O)=C(C(N)=O)C(=O)[C@@]2(O)C(O)=C3C(=O)c4c(O)cccc4[C@@](C)(O)[C@H]3C[C@@H]12
C      -1.71919525     -3.34670846      0.02162582
N      -1.89504083     -2.27438523     -0.96312908
C      -3.10221897     -2.49339224     -1.75686178
C      -1.76804449     -0.91707981     -0.37176417
C      -3.03373757     -0.34200925      0.27521190
O      -3.66031202     -1.23114078      1.15030991
C      -3.50541415      0.90717114      0.05857051
C      -4.77351447      1.34291552      0.71846508
N      -5.23369334      2.58526180      0.42794170
O      -5.39019911      0.61092999      1.48902454
C      -2.71416773      1.82269937     -0.80760657
O      -3.21600579      2.85716543     -1.26594618
C      -1.24023274      1.47548572     -1.07747303
O      -0.78435600      2.27454530     -2.17980159
C      -0.33868695      1.79438021      0.08887702
O      -0.84781196      2.70129049      1.00257421
C       0.87872360      1.21516410      0.19337907
C       1.75248516      1.57364917      1.34294109
O       1.37177292      2.36317448      2.20932041
C       3.11412044      0.99870901      1.41554143
C       4.05256833      1.57442298      2.29460112
O       3.77422987      2.64925681      3.09910727
C       5.34539169      1.06955193      2.39299557
C       5.70861770     -0.03045834      1.62777113
C       4.78234411     -0.62130607      0.76496006
C       3.47089499     -0.11333634      0.62949511
C       2.43605491     -0.77298605     -0.28059040
C       3.09500352     -1.57512432     -1.42720530
O       1.70209289     -1.70049290      0.52723072
C       1.43186867      0.27790983     -0.86345587
C       0.33077567     -0.37354661     -1.76523228
C      -1.13861543      0.00669375     -1.46104120
H      -1.65145469     -4.31682990     -0.48479862
H      -2.53927741     -3.40459989      0.74315804
H      -0.78058577     -3.22798871      0.57151465
H      -4.01226135     -2.53054026     -1.14789895
H      -3.02789199     -3.44431821     -2.29463556
H      -3.22558000     -1.72230307     -2.52082568
H      -1.03839068     -0.97928170      0.44474913
H      -4.46930185     -0.80974871      1.52288089
H      -6.10341377      2.89510707      0.84122779
H      -4.77909568      3.17828599     -0.26527153
H      -1.19858338      3.15340007     -2.04596363
H      -0.18282590      2.82964494      1.71796640
H       2.80598156      2.82631579      3.04481030
H       6.06105935      1.52966109      3.07086077
H       6.71560412     -0.43560787      1.70514553
H       5.12190886     -1.49078363      0.20722710
H       3.74550864     -0.94082771     -2.03806252
H       2.36429503     -2.04235996     -2.09018731
H       3.68145064     -2.41884513     -1.04659475
H       2.34006775     -2.21395996      1.05335633
H       2.02588774      0.92665315     -1.52794166
H       0.41009007     -1.46496541     -1.76877828
H       0.54568474     -0.07689119     -2.80086742
H      -1.69457371     -0.12762742     -2.40090725
