57
CN(CCC#N)c1ccc(C=CC2=[N+](C)c3ccccc3C2(C)C)cc1.O=S(=O)([O-])[O-]
C       6.51392135      1.17942016      0.32516589
N       5.57597160      0.14087730      0.75182608
C       6.02301955     -1.25851618      0.56478769
C       5.88294626     -1.76346708     -0.87549372
C       4.51502846     -2.20224160     -1.18773975
N       3.44274309     -2.56582651     -1.44868642
C       4.20449433      0.39407259      0.68905273
C       3.30206103     -0.39233627      1.42175588
C       1.91685462     -0.21899151      1.32189328
C       1.38826465      0.76073359      0.48138246
C      -0.05784781      0.93348221      0.30883912
C      -0.85604979     -0.11004482      0.03751219
C      -2.31200642      0.06092247     -0.12258996
N      -2.92242729      0.88095677     -0.92586006
C      -2.39302707      1.79087372     -1.94666264
C      -4.37683809      0.76126369     -0.73832377
C      -5.39004555      1.46523623     -1.36398868
C      -6.70396268      1.16039719     -0.99972320
C      -6.97023579      0.17610877     -0.03244182
C      -5.93013561     -0.51960606      0.58912906
C      -4.63054196     -0.21177758      0.22286382
C      -3.32191503     -0.77415482      0.70671307
C      -3.12711099     -0.52421925      2.20446985
C      -3.20450140     -2.26371766      0.37331922
C       2.26791177      1.60375212     -0.19810362
C       3.65418146      1.42105142     -0.09114959
O      -0.01466971      0.60874968      1.34259247
S       0.00001386     -0.00000769     -0.00000906
O       0.03115271      1.06285423     -1.02115657
O       1.19518927     -0.85160511     -0.14040990
O      -1.21168613     -0.81999111     -0.18101694
H       7.53097964      0.93182642      0.64856765
H       6.26755047      2.14520251      0.78029370
H       6.52458858      1.28551897     -0.76467032
H       5.52657843     -1.93604825      1.26932360
H       7.08637373     -1.30469994      0.83479767
H       6.55273685     -2.62173056     -1.00755737
H       6.20376514     -0.99937513     -1.59158409
H       3.66989470     -1.15993665      2.09807071
H       1.27215596     -0.86826261      1.90846067
H      -0.42092765      1.95384296      0.39817770
H      -0.46981637     -1.12570866     -0.01486951
H      -1.32685494      1.60706265     -2.09744130
H      -2.91195350      1.60769870     -2.89193145
H      -2.55057354      2.81933141     -1.61154672
H      -5.20642792      2.23049036     -2.11032185
H      -7.53616593      1.68764143     -1.46579924
H      -8.00336856     -0.04540862      0.23609306
H      -6.15033952     -1.27745970      1.33703659
H      -2.15440495     -0.89546630      2.54640441
H      -3.90071060     -1.02381470      2.79853725
H      -3.16734297      0.54576959      2.44144040
H      -3.99418006     -2.84712698      0.86015696
H      -2.24231353     -2.67143831      0.70235703
H      -3.28002374     -2.44071889     -0.70623609
H       1.89783250      2.39610306     -0.84382571
H       4.29219512      2.08245834     -0.67056467
