17
CCC(C)C(=O)O
C       1.97314768     -0.75763068      0.17552969
C       1.02805095      0.41930260      0.38207693
C      -0.29710728      0.25223249     -0.37541881
C      -1.12176523      1.53497773     -0.31775411
C      -1.12518358     -0.87430732      0.20126268
O      -1.18334395     -1.22344058      1.36802729
O      -1.87154268     -1.49329980     -0.73462268
H       1.54741138     -1.68775984      0.56380084
H       2.91760005     -0.57743608      0.69888422
H       2.19704095     -0.89829801     -0.88672783
H       0.84479931      0.54582855      1.45609531
H       1.53342205      1.32932798      0.03613254
H      -0.07226727      0.01644477     -1.42324933
H      -0.57564650      2.37125568     -0.76629141
H      -2.06559406      1.41825468     -0.86162925
H      -1.36907475      1.80294947      0.71560449
H      -2.35994708     -2.17840164     -0.23172057
