40
CCOc1ccccc1NC(=O)c1cc2ccccc2cc1O
C       2.59776145      3.20981364     -1.07660352
C       3.45666984      1.99512585     -0.77342079
O       2.58529180      0.92105773     -0.42240821
C       3.16791428     -0.29229577     -0.13168295
C       4.54400395     -0.53651408     -0.11132075
C       5.02370612     -1.80946928      0.20333834
C       4.13398332     -2.83880235      0.50029131
C       2.75756526     -2.60442965      0.48324287
C       2.26533926     -1.33760007      0.16514813
N       0.88883287     -1.01700739      0.12987107
C      -0.18758124     -1.86028668      0.29832110
O      -0.14682918     -3.08070381      0.43315633
C      -1.53412436     -1.21848700      0.25126403
C      -1.72232106      0.12010387      0.62940855
C      -2.99383256      0.71741454      0.56033392
C      -3.19213033      2.05854307      0.92742372
C      -4.45886231      2.64000258      0.85088561
C      -5.54374453      1.88913847      0.40853748
C      -5.36546602      0.55409506      0.04367111
C      -4.09834186     -0.04580610      0.11505902
C      -3.90848497     -1.38980412     -0.23663677
C      -2.64393851     -1.97036214     -0.15656382
O      -2.56617423     -3.29606742     -0.49645244
H       1.90444347      2.99649035     -1.89699679
H       3.21809750      4.06728703     -1.35197282
H       1.98885416      3.47814239     -0.20683169
H       4.03956434      1.73773422     -1.66521814
H       4.12562910      2.23030171      0.06223565
H       5.27006582      0.23786406     -0.33289814
H       6.09432683     -1.99867693      0.21870562
H       4.50842543     -3.82923334      0.74768937
H       2.09558875     -3.42907016      0.72623173
H       0.72102646     -0.05210972     -0.13503728
H      -0.88931398      0.70758425      1.00702311
H      -2.35929821      2.66492937      1.27695439
H      -4.59815251      3.67923693      1.13768401
H      -6.53090814      2.34038481      0.34927382
H      -6.22640053     -0.01826510     -0.29573213
H      -4.74576437     -1.99982660     -0.56798887
H      -1.67542112     -3.62043223     -0.23134586
