38
C=C(C)C(=O)OC1CC2CCC1(C)C2(C)C
C       3.64564207     -1.78942015     -0.06581171
C       3.76222272     -0.45371842      0.03090874
C       5.09006582      0.22632861      0.17913264
C       2.58383571      0.46210600     -0.00075511
O       2.68235791      1.67757532      0.08423700
O       1.42362286     -0.22890255     -0.13082565
C       0.23449596      0.56644601     -0.16825436
C      -0.17221202      1.08313652      1.22910251
C      -1.60274060      0.51881529      1.40439938
C      -1.43976740     -0.99007727      1.69160465
C      -1.03707386     -1.55698904      0.32045275
C      -1.00558054     -0.28929496     -0.58100626
C      -1.02591512     -0.62898688     -2.05985143
C      -2.19428112      0.55419311     -0.02970758
C      -2.33772245      1.97315697     -0.61536736
C      -3.58489157     -0.10092173     -0.15355384
H       4.51944109     -2.43301312     -0.03987626
H       2.68467329     -2.28341128     -0.17332249
H       5.12734767      0.79653676      1.11330510
H       5.91741727     -0.49123375      0.19703971
H       5.26580553      0.91204754     -0.65638720
H       0.37910224      1.39356204     -0.87458672
H      -0.18888558      2.17831585      1.24008889
H       0.50606082      0.75539872      2.02399572
H      -2.18165927      1.04271854      2.16861900
H      -0.67988393     -1.19279241      2.45366568
H      -2.37768420     -1.43658992      2.03805492
H      -0.07703788     -2.08051517      0.36702404
H      -1.77549044     -2.28848173     -0.02644659
H      -1.01653831      0.27582575     -2.67606257
H      -0.15132922     -1.22817601     -2.33518816
H      -1.91887491     -1.20428750     -2.32477178
H      -1.42572404      2.57268206     -0.58904899
H      -3.09684674      2.53772666     -0.06130180
H      -2.65617641      1.92809010     -1.66300894
H      -3.91490939     -0.11157714     -1.19863627
H      -4.32505877      0.46620232      0.42292271
H      -3.63580717     -1.13247510      0.20059242
