15
CC(=O)OCCS
C       2.42638156      0.41860747      0.45132354
C       1.35355320     -0.54785792      0.05340974
O       1.53314819     -1.74103866     -0.14225965
O       0.15968600      0.09770086     -0.05166370
C      -0.93094224     -0.74917947     -0.45014538
C      -2.21481669      0.07193452     -0.51415819
S      -2.15996606      1.30145946     -1.85696694
H       2.19415213      0.84808627      1.42902161
H       2.51598822      1.20416807     -0.30319932
H       3.38213814     -0.10883156      0.51956627
H      -1.05576458     -1.53810375      0.30128126
H      -0.71253016     -1.21280128     -1.41998657
H      -2.36706890      0.61394547      0.42441431
H      -3.07436905     -0.58276058     -0.68479209
H      -1.04958975      1.92467108     -1.43297584
