26
CC1(C)C(O)C(C)(C)C1O
C      -1.80768786     -1.36719159      0.24280965
C      -1.10094963     -0.02118262      0.05946508
C      -2.12518187      1.11559457      0.01522924
C      -0.06946062     -0.03412163     -1.11109316
O      -0.15963921      1.05857446     -2.05025525
C       1.10095793      0.02540718     -0.08142708
C       2.06386517      1.20352444     -0.25014335
C       1.88016505     -1.28973283      0.00708923
C       0.06215140      0.26815133      1.05361600
O       0.15980158     -0.58976668      2.20873946
H      -2.48841841     -1.56461738     -0.59260768
H      -2.39735026     -1.37666576      1.16599797
H      -1.09933465     -2.19966954      0.29398701
H      -1.64438172      2.09218933     -0.10850379
H      -2.70714994      1.15085972      0.94275947
H      -2.82382878      0.97982998     -0.81745296
H      -0.09077371     -0.97358805     -1.67914423
H       0.56965550      0.91166371     -2.67744271
H       2.75305569      1.26717320      0.59908195
H       1.53099163      2.15859702     -0.31389277
H       2.66062798      1.09312209     -1.16204421
H       2.45882807     -1.45972842     -0.90754555
H       2.58023967     -1.27335030      0.84953680
H       1.21894322     -2.15100886      0.14281910
H       0.06601195      1.31164486      1.39760722
H      -0.59113818     -0.33570823      2.77281458
