18
COC(=O)c1nc(Cl)c(Cl)nc1N
C      -3.26286999     -0.78643210     -0.39431806
O      -1.86775640     -0.94058390     -0.13430835
C      -1.17981142      0.22867946     -0.06677824
O      -1.65463410      1.34671101     -0.20925969
C       0.25642541     -0.03893256      0.22348882
N       0.56096197     -1.22361891      0.83328969
C       1.86914935     -1.39776492      1.12400594
Cl      2.21010683     -2.89721557      1.88655109
C       2.83115054     -0.43730304      0.83409916
Cl      4.50060609     -0.61274512      1.19470282
N       2.52746615      0.74017749      0.23117822
C       1.22483808      0.93880391     -0.07451678
N       0.96796568      2.10233273     -0.78987755
H      -3.42069135     -0.30254129     -1.36326156
H      -3.71408397     -1.78194116     -0.42650596
H      -3.74100447     -0.21464815      0.40715170
H       0.10603859      2.57297985     -0.51316842
H       1.78614301      2.70404228     -0.79880411
