17
O=C(O)c1ccc(F)c([N+](=O)[O-])c1
O      -3.40891493     -0.03841774      0.36729623
C      -2.35588683     -0.64433483      0.31788167
O      -2.30089161     -1.97956517      0.45027115
C      -1.01775073     -0.03937113      0.10870278
C      -0.93894970      1.35158401     -0.07090138
C       0.29922277      1.97162803     -0.26867860
C       1.46075975      1.20522137     -0.29177436
F       2.63596723      1.82696515     -0.45301468
C       1.37975263     -0.17237664     -0.12014394
N       2.59161819     -0.96240352     -0.14870684
O       3.40232690     -0.74119255     -1.05658970
O       2.71216192     -1.83386432      0.72343599
C       0.15049343     -0.81131519      0.08703309
H      -3.23505294     -2.24940593      0.58223238
H      -1.84450146      1.95790589     -0.05355672
H       0.36267018      3.04865781     -0.40014887
H       0.10697518     -1.88971525      0.22666182
