29
C[C@H](CS)C(=O)N1CCC[C@H]1C(=O)O
C       1.97155980     -1.76490601     -0.24470028
C       1.97427828     -0.23357917     -0.26203225
C       3.29072190      0.28262425      0.33286767
S       3.49143587      2.07934487      0.09752642
C       0.76819725      0.25925640      0.53479141
O       0.86706663      0.57100708      1.72285761
N      -0.44713942      0.29182095     -0.11201158
C      -0.69403026      0.15200431     -1.53774296
C      -2.20758704      0.21001966     -1.67148960
C      -2.62000011      1.11628606     -0.51569398
C      -1.65431270      0.71885806      0.60206436
C      -2.27676538     -0.37756308      1.47416621
O      -3.25514567     -0.23744505      2.19477425
O      -1.69990138     -1.59280392      1.36246347
H       2.79615739     -2.16189735     -0.84598896
H       2.08045102     -2.14729611      0.77670880
H       1.03857209     -2.17404348     -0.64411744
H       1.89975638      0.10535673     -1.30126398
H       4.13885170     -0.19914889     -0.16552243
H       3.36955437      0.06264756      1.40287639
H       2.56486841      2.44222746      1.00106550
H      -0.21843602      0.99770726     -2.04650533
H      -0.27575796     -0.77906610     -1.92652983
H      -2.63718811     -0.78933570     -1.53244852
H      -2.52933689      0.58787011     -2.64578222
H      -3.67632432      0.99939738     -0.25601185
H      -2.45026167      2.16291061     -0.79722111
H      -1.41671495      1.56360782      1.25823455
H      -2.19256920     -2.14586171      2.00296568
