42
N#Cc1ccccc1/C=C/c1ccc(/C=C/c2ccccc2C#N)cc1
N      -5.10890473     -3.29827254     -1.73339032
C      -5.51609383     -2.33741826     -1.22425774
C      -6.03192620     -1.14812752     -0.60612838
C      -7.42168733     -1.02264524     -0.45382298
C      -7.96720162      0.11385063      0.14318116
C      -7.12939879      1.13247684      0.58846026
C      -5.74537346      1.01557225      0.44121425
C      -5.17848645     -0.12646823     -0.14837058
C      -3.71723087     -0.21168123     -0.30967010
C      -2.86201907     -0.04240889      0.71148689
C      -1.40330513     -0.14047020      0.57024131
C      -0.59022901      0.74016117      1.29186000
C       0.80421091      0.65896996      1.20366107
C       1.41174129     -0.30684144      0.39289107
C       2.87118853     -0.44378100      0.29975390
C       3.70985604      0.60277727      0.23528359
C       5.17240327      0.44896397      0.15885679
C       5.73297297     -0.35878367     -0.84440476
C       7.11758040     -0.50666821     -0.95333953
C       7.96212597      0.15501281     -0.06637303
C       7.42270330      0.96916781      0.92951750
C       6.03239573      1.12371104      1.04588429
C       5.52304389      1.97003361      2.08841832
N       5.12090929      2.66344565      2.92849284
C       0.59907796     -1.20935932     -0.30164380
C      -0.79538671     -1.12686383     -0.21505851
H      -8.08690497     -1.81188595     -0.80068462
H      -9.04478598      0.20577041      0.25784390
H      -7.55205629      2.02294958      1.04827952
H      -5.11079107      1.83099447      0.78401421
H      -3.36000118     -0.43499904     -1.31278477
H      -3.22290434      0.18572483      1.71198929
H      -1.03174671      1.50243154      1.92995126
H       1.40594200      1.35150431      1.78834635
H       3.24702182     -1.46438996      0.27992885
H       3.33756336      1.62498558      0.24978833
H       5.09273010     -0.87458567     -1.55795924
H       7.53531739     -1.13688210     -1.73522231
H       9.04015066      0.03966554     -0.15206200
H       8.09310721      1.48389471      1.61606170
H       1.04087852     -1.98666958     -0.92112360
H      -1.39648687     -1.85286209     -0.75833100
