58
CCCCCCCCCCCCCCCCN(C)C
C       6.22643650      3.47466100     -1.24205498
C       6.22315294      2.49707256     -0.07760605
C       5.70415902      1.12247962     -0.50155835
C       5.69827944      0.14558371      0.67577785
C       5.30062110     -1.28096577      0.28429749
C       3.91650250     -1.44288758     -0.35415097
C       2.77086207     -0.98812600      0.55346668
C       1.38588235     -1.15524095     -0.08293974
C       0.96473015     -2.61796651     -0.24890418
C      -0.41814342     -2.78313988     -0.88861097
C      -1.56440479     -2.28710115     -0.00295003
C      -2.92332644     -2.57925221     -0.64447157
C      -4.11222085     -2.20557727      0.24632009
C      -4.19963709     -0.73500260      0.66848537
C      -4.30652883      0.23271399     -0.51417094
C      -4.43212459      1.70206095     -0.07914495
N      -5.58901243      1.99246914      0.78369686
C      -5.49197704      3.35614323      1.31065996
C      -6.85911175      1.82560130      0.07490892
H       6.60107654      4.45026587     -0.91687648
H       6.86911519      3.11688297     -2.05275245
H       5.21625759      3.61414671     -1.64002727
H       5.59736300      2.89895020      0.72771188
H       7.24162102      2.40566066      0.31727388
H       6.33338432      0.72466565     -1.30680350
H       4.69072778      1.23197127     -0.90367100
H       5.03575943      0.51799768      1.46537128
H       6.70367852      0.10709766      1.11405523
H       6.04953238     -1.67587456     -0.41373459
H       5.35332306     -1.91261769      1.17990233
H       3.79301843     -2.50362834     -0.59948340
H       3.87566872     -0.90078917     -1.30562628
H       2.89611849      0.07416444      0.79185832
H       2.80860458     -1.53398144      1.50376204
H       0.66449614     -0.63931559      0.56055843
H       1.36353128     -0.64811890     -1.05499259
H       1.68693312     -3.13793477     -0.88775923
H       0.98199370     -3.12216533      0.72479864
H      -0.56819726     -3.84890742     -1.10194832
H      -0.44221332     -2.26187908     -1.85336618
H      -1.50884616     -2.77418147      0.97779781
H      -1.46211262     -1.20969631      0.15877169
H      -2.99238176     -3.65190482     -0.86575799
H      -2.99823137     -2.06320015     -1.60848826
H      -4.08111678     -2.82285047      1.15297990
H      -5.03638061     -2.47822841     -0.27860102
H      -3.33585430     -0.46982130      1.28868937
H      -5.08220261     -0.62836546      1.31067468
H      -5.14835933     -0.05128934     -1.15558460
H      -3.40674447      0.15189187     -1.13531345
H      -4.45234968      2.33717083     -0.97466337
H      -3.51077150      1.95598266      0.46189597
H      -4.57332810      3.47961719      1.89517705
H      -6.32388486      3.56651100      1.99222176
H      -5.49899224      4.10883257      0.51384101
H      -7.70078947      2.07554432      0.73116400
H      -6.92131755      2.45938187     -0.81705670
H      -7.01226814      0.78448900     -0.22569951
