16
COc1cccc(Cl)c1
C      -2.62216975      0.33872379     -0.38376577
O      -1.68953455     -0.73051558     -0.28333068
C      -0.40631284     -0.40382151      0.05987636
C       0.46869348     -1.49185528      0.14442463
C       1.80961052     -1.30567494      0.48536403
C       2.28494506     -0.02245683      0.74502898
C       1.41439570      1.06272800      0.66121878
Cl      2.00249911      2.64951586      0.98238897
C       0.07196899      0.88050664      0.32037074
H      -2.74656264      0.84544242      0.57894004
H      -3.59046833     -0.08752592     -0.66324103
H      -2.33000189      1.04467444     -1.16818374
H       0.09930901     -2.49491062     -0.05803031
H       2.47847199     -2.16009614      0.54740252
H       3.32815089      0.12507615      1.01057939
H      -0.57299474      1.75018950      0.26577068
