14
NCCS(=O)(=O)O
N      -2.35378451     -0.06802784      0.43389935
C      -1.07586454     -0.49116440     -0.14366282
C       0.07999527      0.29551002      0.45106827
S       1.61385523     -0.21711383     -0.30449716
O       1.65498320      0.23570749     -1.67683715
O       1.92758970     -1.57429958      0.07398835
O       2.60585143      0.76707341      0.50457044
H      -2.57580232      0.88262272      0.13719617
H      -3.10172506     -0.65546700      0.06193214
H      -0.93984862     -1.56099380      0.04968060
H      -1.11422933     -0.36327125     -1.23117084
H      -0.03196913      1.36895326      0.26701448
H       0.16810089      0.11818564      1.52774880
H       3.14284778      1.26228516     -0.15093063
