38
CC(C)(C)C(O)/C(=C\c1ccc(Cl)cc1)n1cncn1
C      -1.73924732     -2.21614860      1.23871281
C      -1.54274768     -0.98810759      0.31867865
C      -1.08321581     -1.49919228     -1.05961558
C      -2.91804924     -0.32105741      0.14769398
C      -0.45530267     -0.04892392      0.95702066
O      -0.81711457      0.31154226      2.29484280
C      -0.02362694      1.20209298      0.16987951
C       1.12473590      1.23747064     -0.55323804
C       2.12001863      0.16715534     -0.69228438
C       2.94353389     -0.19160621      0.38216127
C       3.90261263     -1.19608052      0.22964186
C       4.04718937     -1.83365143     -1.00073680
Cl      5.22763187     -3.07038725     -1.18971117
C       3.24411122     -1.47266960     -2.08101919
C       2.28455150     -0.46836650     -1.92841925
N      -0.86765965      2.34121969      0.27673767
C      -0.75255640      3.55323145     -0.39700662
N      -1.69459613      4.39729333     -0.05164832
C      -2.39937573      3.69067791      0.86182296
N      -1.95745442      2.45838606      1.10195830
H      -0.79339346     -2.74651626      1.39684071
H      -2.44759991     -2.92997280      0.80237730
H      -2.13024880     -1.92581522      2.22000476
H      -0.12829472     -2.02978788     -0.98517707
H      -1.81140744     -2.20067009     -1.48356451
H      -0.96935996     -0.68031420     -1.77730240
H      -3.30748001      0.05388168      1.09948657
H      -3.65431966     -1.03692578     -0.23775215
H      -2.88080532      0.50478449     -0.56918222
H       0.42387121     -0.68310681      1.10529401
H      -1.52216542      0.98958983      2.22539763
H       1.42645505      2.12649953     -1.10203077
H       2.84176970      0.30350869      1.34635295
H       4.53119761     -1.47329848      1.07185785
H       3.36013585     -1.96693080     -3.04198690
H       1.66457972     -0.19425282     -2.77921282
H       0.02233691      3.75230282     -1.12140144
H      -3.26870976      4.08414574      1.37413728
