62
CC1(C)O[C@@H]2C[C@H]3[C@@H]4CCC5=CC(=O)C=C[C@]5(C)[C@@]4(F)[C@@H](O)C[C@]3(C)[C@]2(C(=O)CO)O1
C       2.82256626      2.56636555     -1.62557984
C       3.43294351      1.24903349     -1.16425340
C       4.93303614      1.40927148     -0.93422686
O       3.23329903      0.26060959     -2.16991856
C       2.53266178     -0.82460909     -1.56534179
C       1.06520957     -0.83632903     -2.04392787
C       0.28589068     -0.28622909     -0.85076630
C      -1.23398241     -0.49967564     -0.79056318
C      -1.90471002      0.03552735     -2.06946537
C      -3.42569314     -0.05347268     -2.00658442
C      -3.94527375      0.63106651     -0.76835737
C      -4.81678956      1.65049395     -0.87057362
C      -5.30103942      2.38600214      0.31489346
O      -6.10988993      3.29956303      0.21235799
C      -4.77123356      1.97484550      1.62816497
C      -3.90390762      0.95957421      1.73585853
C      -3.37216710      0.12644190      0.56954128
C      -3.90271467     -1.30806217      0.79692239
C      -1.79344490      0.22115257      0.48238442
F      -1.49556654      1.56601815      0.31014926
C      -1.01872450     -0.18837830      1.77486055
O      -1.38128961     -1.48446812      2.23889447
C       0.51913208     -0.11648316      1.61625467
C       1.04259414     -0.86087074      0.37023362
C       0.85808514     -2.39411174      0.53297706
C       2.51362090     -0.54696779     -0.05303010
C       3.56786979     -1.35876491      0.71304799
O       3.99020850     -2.45015045      0.31786166
C       4.08017978     -0.77404112      2.02426745
O       4.69879358     -1.77123139      2.82602507
O       2.80492966      0.84933622      0.05863729
H       3.27941306      2.91111803     -2.55929585
H       1.75098316      2.45180875     -1.81975101
H       2.93133360      3.34413454     -0.86247788
H       5.43954990      1.74920865     -1.84391225
H       5.39039308      0.45310435     -0.65777436
H       5.13773085      2.11546998     -0.12285202
H       3.02218337     -1.75722142     -1.86144738
H       0.74672114     -1.86094471     -2.26612345
H       0.91717766     -0.22917766     -2.94279253
H       0.43416732      0.80371375     -0.87003321
H      -1.45026359     -1.57097549     -0.73391665
H      -1.55822242     -0.53347534     -2.94025215
H      -1.60844896      1.07943042     -2.23777123
H      -3.74202154     -1.10290152     -2.01055495
H      -3.84434068      0.39523124     -2.91573902
H      -5.20021043      2.00399979     -1.82093392
H      -5.13034753      2.52932174      2.48647801
H      -3.57032543      0.68649136      2.73451960
H      -4.98385157     -1.36297542      0.61188912
H      -3.75542105     -1.64895434      1.82726368
H      -3.42950818     -2.04260015      0.13875521
H      -1.27971535      0.51573222      2.57346331
H      -0.94052226     -1.63022302      3.09559403
H       0.80045139      0.94252765      1.56320424
H       0.99431830     -0.52666436      2.51464278
H      -0.18783486     -2.70510906      0.54876303
H       1.32962444     -2.95990999     -0.27730618
H       1.30800268     -2.73880389      1.47123386
H       3.25781633     -0.34746693      2.59947900
H       4.81639622      0.00364751      1.80692104
H       5.12017757     -2.39899291      2.20489166
