46
C#CCC1=C(C)C(OC(=O)[C@H]2[C@H](C=C(C)C)C2(C)C)CC1=O
C       6.45865913     -2.70442803     -0.16740499
C       5.45481218     -2.38197354      0.40808303
C       4.22889959     -1.98895413      1.11775848
C       3.45408959     -1.01746499      0.30469830
C       2.46402660     -1.17513865     -0.58681521
C       1.88429475     -2.46788650     -1.05634108
C       1.92759708      0.11417115     -1.14943339
O       0.56620623      0.23592663     -0.72349915
C      -0.14373504      1.19555914     -1.37211339
O       0.28144800      1.92101835     -2.25850310
C      -1.54626343      1.27595741     -0.90431528
C      -1.93451935      1.00028320      0.53366251
C      -3.17356778      0.26186376      0.81978558
C      -3.41992080     -1.04666080      0.61402054
C      -4.75149030     -1.65302646      0.96603597
C      -2.42262998     -2.01143253      0.03763207
C      -1.99639437      2.42194926     -0.00837543
C      -0.97537038      3.39886625      0.52603358
C      -3.31463206      3.07317459     -0.35394190
C       2.80114584      1.20602057     -0.53845505
C       3.65167902      0.43820687      0.42576650
O       4.43190210      0.94799885      1.21659708
H       7.35327677     -2.98421019     -0.67452238
H       4.47749964     -1.55967183      2.09494590
H       3.62335308     -2.87818521      1.32656567
H       2.40270523     -3.33351732     -0.63394731
H       1.95719471     -2.54068312     -2.14621472
H       0.82965835     -2.54044154     -0.77466200
H       1.99472523      0.10665744     -2.24467460
H      -2.24440819      0.95574950     -1.67247037
H      -1.13694623      0.77571642      1.23781274
H      -3.96672508      0.85702359      1.27246411
H      -5.44846577     -0.91546413      1.37759767
H      -5.21634148     -2.08838559      0.07540913
H      -4.62310576     -2.44277290      1.71342279
H      -2.78637237     -2.40543768     -0.91682129
H      -2.26973052     -2.85137287      0.72344628
H      -1.44525175     -1.55739958     -0.13947035
H      -1.37970141      3.93071358      1.39376663
H      -0.71770888      4.13741198     -0.24017481
H      -0.05157815      2.90496319      0.84465650
H      -4.01330653      2.38024714     -0.83440940
H      -3.15410846      3.90693920     -1.04583383
H      -3.79251039      3.46568243      0.54967751
H       2.22943400      1.97143592     -0.00744430
H       3.45217737      1.66097117     -1.29121271
