50
CC(CC(C)(C)C)CC(C)(C)CC(C)(C)C
C       1.49048427     -2.07802890      0.02076131
C       1.03272789     -0.65348596      0.34481256
C       2.16378676      0.11161339      1.09523453
C       3.14406357      0.96758292      0.23805130
C       3.86909985      0.14360566     -0.83447399
C       4.20479948      1.56347152      1.18779975
C       2.40463434      2.13305349     -0.44297319
C      -0.25191322     -0.62730544      1.22256098
C      -1.59618727     -1.23215138      0.69919774
C      -1.54557533     -2.78160116      0.77445488
C      -2.70573091     -0.81959071      1.69053186
C      -1.94446823     -0.85055333     -0.77433444
C      -2.46560785      0.56058349     -1.19947996
C      -1.69096023      1.73440999     -0.59179448
C      -2.31707654      0.65107928     -2.73908241
C      -3.96515222      0.73244441     -0.88617006
H       1.43667357     -2.72527241      0.90230077
H       0.87815772     -2.51104298     -0.77392664
H       2.52058739     -2.11139659     -0.34063460
H       0.82243788     -0.14077333     -0.59650256
H       1.71107154      0.79129439      1.83059957
H       2.74151510     -0.60874623      1.69124664
H       4.40489937     -0.70167861     -0.38929726
H       4.60728575      0.75437402     -1.36748995
H       3.17346286     -0.24436742     -1.58556792
H       4.92074514      2.18968152      0.64327661
H       3.73989783      2.18670251      1.96011746
H       4.77237155      0.77319623      1.69208675
H       1.82058283      2.71054289      0.28210253
H       1.72358769      1.78208477     -1.22383646
H       3.11099230      2.82123231     -0.92184897
H      -0.01243215     -1.10419311      2.18452759
H      -0.43933115      0.42282267      1.47750543
H      -0.94304381     -3.22134354     -0.02213678
H      -2.54972132     -3.21075976      0.66856036
H      -1.14596606     -3.12462045      1.73528076
H      -2.51578867     -1.23854265      2.68637522
H      -2.76645364      0.26424003      1.81637089
H      -3.68612080     -1.18574129      1.36649745
H      -1.06101146     -1.08150308     -1.38388909
H      -2.69835074     -1.57132372     -1.12714323
H      -1.84307541      1.81602257      0.48676172
H      -2.02093619      2.68676032     -1.02433424
H      -0.62000581      1.64874836     -0.78735936
H      -1.26577301      0.57613200     -3.04015983
H      -2.70184668      1.60272761     -3.12360231
H      -2.86752265     -0.15497731     -3.23767282
H      -4.16080039      0.82900522      0.18359860
H      -4.36252648      1.63939780     -1.35767131
H      -4.55048645     -0.11380998     -1.26249706
