10
C[As](=O)([O-])O.[Na+]
C      -1.20149365     -0.13581691      0.00899246
As      0.66522185      0.47292936      0.02618731
O       1.00208307      0.85884350      1.60278672
O       0.86734040      1.96638505     -1.03363551
O       1.83149254     -0.80922149     -0.50326985
Na      0.00000000      0.00000000      0.00000000
H      -1.80658449      0.68630407      0.47758305
H      -1.58983790     -0.31531643     -0.99921987
H      -1.27121951     -1.02316562      0.67619716
H       1.50299769     -1.70094153     -0.25562146
