17
Nc1cccc(C(F)(F)F)c1
N      -2.51830965     -1.13763539      0.23116677
C      -1.38805853     -0.35710139     -0.03198720
C      -1.52438498      0.99777845     -0.34100693
C      -0.40146221      1.81485389     -0.48495617
C       0.87304859      1.28997770     -0.27999422
C       1.03222358     -0.05449006      0.08294587
C       2.40094722     -0.61845661      0.36414172
F       2.75539357     -0.49693827      1.67300741
F       2.50367584     -1.94550106      0.07059915
F       3.38872692     -0.00647366     -0.34835006
C      -0.11082152     -0.85942420      0.23005888
H      -2.36476459     -2.13680763      0.13712674
H      -3.35450408     -0.83020620     -0.25586381
H      -2.51241229      1.43173537     -0.47176798
H      -0.52445717      2.86416953     -0.74136612
H       1.74195271      1.93769534     -0.38629000
H       0.00320657     -1.89317584      0.55253595
