23
CC(C)SS(=O)C(C)C
C       2.67728229     -0.85865845     -0.86497038
C       2.29013172      0.35465911     -0.02430236
C       3.35394008      0.63232835      1.03560914
S       0.69377894      0.06847748      0.82133029
S      -0.67675824      0.21407974     -0.72277229
O      -0.22236366      1.50644202     -1.33298222
C      -2.23899993      0.53648544      0.18679098
C      -3.27911891      1.09683848     -0.77944803
C      -2.74886851     -0.74912352      0.82956051
H       1.95088887     -1.04920092     -1.66164033
H       2.76514499     -1.76540864     -0.25575551
H       3.64693746     -0.69239593     -1.34770019
H       2.21073963      1.23706428     -0.66732801
H       3.48837642     -0.21784238      1.71423048
H       4.32171592      0.82960940      0.56086272
H       3.10045546      1.51478440      1.63383734
H      -2.03164014      1.28540359      0.95902969
H      -4.22017533      1.30279257     -0.25833404
H      -2.93732031      2.03580015     -1.22841938
H      -3.49072515      0.39632617     -1.59521745
H      -2.03472925     -1.14788819      1.55711194
H      -2.92847758     -1.52904205      0.08088808
H      -3.69021478     -0.56835416      1.35961903
