42
CC(C)(OOC(C)(C)c1ccccc1)c1ccccc1
C       1.38643878     -0.75812429     -1.76830579
C       1.48225450     -1.04076082     -0.25906333
C       1.92512138     -2.49412055     -0.02195560
O       0.21036746     -0.86490574      0.39961000
O      -0.80195366     -1.62916226     -0.33375188
C      -2.09396315     -1.16897890      0.12781397
C      -3.13242066     -2.01600368     -0.63112511
C      -2.21915796     -1.51403081      1.62412684
C      -2.29754326      0.30844317     -0.23024487
C      -2.74369731      1.26051169      0.70102787
C      -2.91621861      2.59974324      0.33686112
C      -2.64792009      3.01338354     -0.96468464
C      -2.20677237      2.08872352     -1.90517703
C      -2.03535879      0.75136632     -1.54142947
C       2.42505556      0.00218991      0.36002564
C       1.95509328      1.31210073      0.58901721
C       2.78356009      2.29741134      1.13009668
C       4.10364670      1.99711785      1.44875918
C       4.59384515      0.71381492      1.22359161
C       3.76457167     -0.27374503      0.68165545
H       0.95636984      0.23038233     -1.96397029
H       2.37192233     -0.79879641     -2.24632978
H       0.74231988     -1.48502109     -2.27535318
H       2.03306968     -2.70118051      1.04928380
H       1.17912570     -3.20334392     -0.39834210
H       2.87203394     -2.72602398     -0.52050337
H      -3.01548818     -1.92463685     -1.71724877
H      -3.00532436     -3.08156170     -0.40519171
H      -4.15742887     -1.72774946     -0.37262088
H      -1.52619611     -0.92595995      2.23666422
H      -1.96652721     -2.56636595      1.80064973
H      -3.23335894     -1.33982608      2.00000525
H      -2.96151671      0.98413195      1.72906099
H      -3.25923801      3.32054971      1.07477295
H      -2.78090318      4.05480731     -1.24438631
H      -1.99209335      2.40575846     -2.92219253
H      -1.68063826      0.04782094     -2.29232196
H       0.92517057      1.57255592      0.34480252
H       2.39386738      3.29731542      1.30079658
H       4.74994400      2.76192393      1.87031395
H       5.62634658      0.47816612      1.46870137
H       4.19359456     -1.25792035      0.51656172
