62
CCCCC(CC)COC(=O)CCC(=O)OCC(CC)CCCC
C       2.50180182      2.87958795      1.48676415
C       2.60064001      1.36439367      1.58040196
C       3.53104215      0.79805764      0.50622820
C       3.64117654     -0.72583647      0.61435567
C       4.64519474     -1.34663751     -0.38520784
C       4.87163725     -2.82565278      0.00580462
C       5.92345517     -3.53178075     -0.83772814
C       4.19659709     -1.18852165     -1.85154962
O       3.05843331     -2.01996425     -2.12916498
C       1.86488383     -1.39698045     -2.31627079
O       1.68266561     -0.18789060     -2.33392610
C       0.78135372     -2.42599834     -2.53433083
C      -0.59265582     -1.85244193     -2.20668553
C      -0.70088778     -1.50950221     -0.74041420
O      -0.02075664     -2.01075310      0.14477475
O      -1.68774426     -0.59281750     -0.55000968
C      -1.83985773     -0.16255490      0.80951430
C      -2.87237217      0.97857807      0.88369854
C      -2.50661589      2.16886277     -0.02978948
C      -1.11921865      2.74225272      0.22873900
C      -4.27659296      0.42463967      0.54420259
C      -5.41272605      1.41520170      0.82077516
C      -6.78001954      0.75819984      0.62332469
C      -7.91239894      1.73650306      0.89464672
H       3.48241092      3.34421770      1.63655568
H       1.82057062      3.26446474      2.25306415
H       2.12162649      3.18970225      0.50694982
H       1.60037776      0.92975393      1.47264664
H       2.96918534      1.08955651      2.57554265
H       3.15005195      1.08598305     -0.47825959
H       4.52667877      1.24575082      0.61186165
H       3.96255021     -0.97054384      1.63575484
H       2.65164152     -1.17901420      0.48676564
H       5.60094274     -0.81639027     -0.27259612
H       3.92959542     -3.38389086     -0.05172416
H       5.19510312     -2.87253927      1.05357681
H       6.86760960     -2.97843540     -0.83366706
H       6.11532741     -4.53154108     -0.43445336
H       5.59486682     -3.65418649     -1.87399215
H       4.99660618     -1.51804127     -2.52304637
H       4.01912087     -0.13913600     -2.10653617
H       0.98461902     -3.29958922     -1.90448114
H       0.81729412     -2.73677273     -3.58332005
H      -1.37153061     -2.58694994     -2.44041167
H      -0.77550895     -0.94891656     -2.80108095
H      -2.17420864     -1.01213993      1.41858474
H      -0.87545723      0.17824090      1.20396993
H      -2.88969582      1.33189333      1.92293464
H      -3.22764413      2.97944746      0.12196806
H      -2.58021214      1.87586963     -1.08343495
H      -0.33339970      2.03918770     -0.06175415
H      -0.98919745      2.99762258      1.28457025
H      -0.97455722      3.65348419     -0.35993327
H      -4.31401961      0.11555089     -0.50815041
H      -4.45154028     -0.47873925      1.14296588
H      -5.33210183      1.79075454      1.84782909
H      -5.33398397      2.27765521      0.15012911
H      -6.86795498      0.38144411     -0.40261020
H      -6.88079928     -0.10254034      1.29517956
H      -7.86741605      2.58846034      0.20866315
H      -8.88019498      1.24355734      0.76045516
H      -7.86379085      2.11782479      1.91939766
