22
Brc1ccc(-c2ccc(Br)cc2)cc1
Br     -5.37756063     -0.70698072      0.39103675
C      -3.50932794     -0.46137130      0.24564726
C      -2.95054295      0.78158626      0.52904034
C      -1.56795996      0.96102318      0.42017046
C      -0.72757939     -0.09566241      0.02915841
C       0.72758033      0.09564846     -0.08408835
C       1.62321480     -0.74631607      0.59756350
C       3.00596851     -0.56620071      0.49203135
C       3.50932720      0.46138156     -0.30056062
Br      5.37755827      0.70700968     -0.44594275
C       2.64434692      1.30905744     -0.98667245
C       1.26234064      1.12567314     -0.87705463
C      -1.31759404     -1.34039944     -0.25053163
C      -2.69977289     -1.52443787     -0.14423437
H      -3.57621429      1.61502856      0.83699096
H      -1.14567405      1.93613382      0.65638730
H       1.24570262     -1.54744516      1.23052683
H       3.67536533     -1.22972266      1.03292782
H       3.03044896      2.11135426     -1.60970451
H       0.59993032      1.79007743     -1.42909167
H      -0.69995653     -2.17879449     -0.56767928
H      -3.12960123     -2.49664294     -0.37003954
