33
CC(C)(C)C(=O)OCCc1ccccc1
C      -4.09727083      0.92025916      0.20559611
C      -3.15944743     -0.21778492     -0.22761558
C      -3.14346555     -1.29596328      0.86390998
C      -3.66532154     -0.80385118     -1.55238344
C      -1.74344623      0.33224880     -0.41718422
O      -1.41289439      1.49403551     -0.21876152
O      -0.89116419     -0.65120996     -0.82669132
C       0.47142905     -0.24563297     -1.04269790
C       1.24411601     -0.24858083      0.27510102
C       2.69232058      0.11561743      0.07943174
C       3.08262246      1.46101801      0.04050996
C       4.42042847      1.80298712     -0.16091102
C       5.37831817      0.80478695     -0.32870140
C       4.99931757     -0.53607589     -0.29638008
C       3.66173836     -0.88052253     -0.09522344
H      -3.76643339      1.37084653      1.14860518
H      -4.12629121      1.71844214     -0.54526629
H      -5.12168761      0.55885470      0.34943849
H      -4.15299428     -1.67062884      1.06637105
H      -2.52423615     -2.15293724      0.57565245
H      -2.73425555     -0.90135290      1.80110776
H      -3.62592168     -0.05698748     -2.35368126
H      -4.70097944     -1.15029288     -1.46308005
H      -3.05851060     -1.65755843     -1.87462173
H       0.90828370     -0.97107331     -1.73866540
H       0.51126165      0.72915728     -1.54484618
H       0.78469801      0.44179739      0.99342150
H       1.16242194     -1.23563291      0.74851392
H       2.34433596      2.25076377      0.16760127
H       4.71455026      2.84896746     -0.18712256
H       6.42001256      1.07204510     -0.48496584
H       5.74640208     -1.31436848     -0.42811861
H       3.38206322     -1.93137331     -0.07457708
