37
Nc1ncnc2c1ncn2C1OC(COP(=O)(O)O)C(O)C1O
N      -5.84878283     -1.81658312      1.02329773
C      -4.90787756     -0.94673068      0.49072033
N      -5.29936091      0.31067166      0.18101690
C      -4.38886051      1.15735547     -0.34461494
N      -3.07957724      0.93312906     -0.60171520
C      -2.74491603     -0.32703381     -0.26759678
C      -3.56644152     -1.30190611      0.27380468
N      -2.85793913     -2.46177448      0.50742364
C      -1.63409378     -2.20091435      0.09490261
N      -1.51552406     -0.92188281     -0.37791983
C      -0.33661432     -0.28918921     -0.93922050
O       0.79823776     -1.17814634     -0.82307120
C       1.89815079     -0.43053550     -0.25848258
C       3.20747815     -0.86276472     -0.92677148
O       4.30495941     -0.00764538     -0.66261642
P       4.83672373      0.10749551      0.84245835
O       4.21543242     -0.78073987      1.86129030
O       4.68324951      1.66639162      1.14567013
O       6.41799014      0.00260180      0.67092586
C       1.55008880      1.04057911     -0.44435599
O       2.18580926      1.91138948      0.49447547
C       0.04751760      1.01294675     -0.23141432
O      -0.53756031      2.19137332     -0.77921984
H      -5.44349438     -2.59740415      1.52763066
H      -6.63015438     -1.33392127      1.44588622
H      -4.75900828      2.14979895     -0.58894616
H      -0.80536071     -2.89910302      0.11506013
H      -0.54027735     -0.13313260     -2.00543525
H       1.93726409     -0.66478549      0.81101309
H       3.46189780     -1.88838609     -0.63461009
H       3.07031479     -0.89139626     -2.01396931
H       3.72411239      1.89447649      1.16547415
H       6.75803954      0.78328293      0.20059833
H       1.79510111      1.39303305     -1.45381605
H       1.70197174      2.76212890      0.40547525
H      -0.18671041      0.99143174      0.84059572
H      -1.51178530      2.06402408     -0.74394361
