30
O=S(=O)(NS(=O)(=O)c1ccc(Cl)cc1)c1ccc(Cl)cc1
O      -1.16926239      2.62862127      0.96523921
S      -0.79921942      1.37872657      0.33345539
O      -0.04644117      1.37366498     -0.89977690
N      -0.00393560      0.51770389      1.47357716
S       0.79543054     -0.88065710      1.19194901
O       0.04887339     -1.69395110      0.25987182
O       1.15991326     -1.39955088      2.49433960
C       2.30061114     -0.35283617      0.41001015
C       3.33012698      0.17694099      1.19697028
C       4.52777916      0.56578386      0.59259299
C       4.69246632      0.41384497     -0.78496390
Cl      6.16938820      0.89421641     -1.52462303
C       3.67200047     -0.13020638     -1.56549531
C       2.47263004     -0.52344303     -0.96727817
C      -2.30144775      0.46280624      0.08852233
C      -2.46621450     -0.32049801     -1.05817139
C      -3.66330542     -1.01338067     -1.25278695
C      -4.68871427     -0.90713465     -0.31266981
Cl     -6.16280680     -1.75944835     -0.55713359
C      -4.53124511     -0.10966521      0.82184175
C      -3.33591143      0.58399255      1.02397515
H      -0.00665011      0.87469345      2.41814429
H       3.21525239      0.28176947      2.27357314
H       5.33015040      0.98003883      1.19835868
H       3.80358484     -0.24972249     -2.63819357
H       1.68104510     -0.94585431     -1.58297331
H      -1.67074335     -0.40939041     -1.79535678
H      -3.78926643     -1.63347216     -2.13703815
H      -5.33743719     -0.02124287      1.54613061
H      -3.22665129      1.21765031      1.90135690
