40
CC(=O)CC(C)=Nc1ccc(N=C(C)CC(C)=O)cc1
C       4.50146238      2.59850492      0.19524013
C       5.17645060      1.25725388      0.07945773
O       6.11320952      1.07375220     -0.69847634
C       4.62567966      0.13323119      0.91564979
C       3.34480786     -0.41743551      0.34026552
C       3.45425413     -1.31346755     -0.87356214
N       2.23006517     -0.03306644      0.88952189
C       1.01091563     -0.47703405      0.36532733
C       0.37627049     -1.59272490      0.91623404
C      -0.85322181     -2.02592294      0.41330201
C      -1.47313816     -1.32989950     -0.62590154
N      -2.70321578     -1.76298634     -1.13002115
C      -3.80839972     -1.23101207     -0.69524956
C      -5.10165743     -1.69397990     -1.32341368
C      -3.91105653     -0.17465753      0.38558747
C      -3.80423513      1.23502531     -0.13998031
C      -3.26732909      2.27009982      0.81297387
O      -4.17880657      1.54581278     -1.27031533
C      -0.83597385     -0.21717684     -1.18084134
C       0.39271815      0.21651360     -0.67765724
H       3.49285804      2.54235460     -0.22066703
H       5.07479122      3.34632056     -0.35977662
H       4.46104656      2.90149596      1.24446659
H       4.46256774      0.49573855      1.93622074
H       5.37019587     -0.66765708      0.97584261
H       3.18124755     -0.74622325     -1.76751869
H       2.80134706     -2.18383549     -0.77465702
H       4.48092907     -1.67201986     -0.98802554
H       0.84489877     -2.12937030      1.73619564
H      -1.33191715     -2.90598435      0.83313373
H      -4.90896264     -2.42715534     -2.11145772
H      -5.73069112     -2.15287625     -0.55584330
H      -5.62710817     -0.83776577     -1.75397150
H      -3.13997237     -0.34094621      1.14305404
H      -4.87913694     -0.26976318      0.88937952
H      -2.25559394      1.99552621      1.12172385
H      -3.23026587      3.24403433      0.31714825
H      -3.92275723      2.33938083      1.68450638
H      -1.30299462      0.31453373     -2.00662486
H       0.87071867      1.09338217     -1.10456511
