16
COC(=O)CC(C)=O
C      -2.86805399     -0.39168414     -0.34984805
O      -1.67316572      0.34722629     -0.61169005
C      -0.64850534      0.07261852      0.24578545
O      -0.69830337     -0.74202886      1.15525184
C       0.54353613      0.90304328     -0.11779795
C       1.71719430      0.73587692      0.80929170
C       2.34975582     -0.62811649      0.91521257
O       2.16741000      1.69321899      1.44209649
H      -2.68670507     -1.46485776     -0.46483386
H      -3.24638748     -0.16632570      0.65214263
H      -3.62160923     -0.08708999     -1.08132473
H       0.24693989      1.95782602     -0.10072337
H       0.87090745      0.64597252     -1.13034470
H       3.38515003     -0.52162078      1.25156815
H       1.80217901     -1.24177448      1.63301121
H       2.35965756     -1.11228434     -0.06472229
