42
CC[P+](c1ccccc1)(c1ccccc1)c1ccccc1.[I-]
C      -2.16810870     -0.84670518      2.01477982
C      -0.87874207     -0.10081485      2.12711195
P      -0.10779221      0.07292197      0.47161999
C      -0.84826508      1.43283592     -0.41588140
C      -2.14746240      1.80029624     -0.13309704
C      -2.76927198      2.85274874     -0.79673055
C      -2.10893463      3.56004203     -1.75537084
C      -0.81185744      3.21266384     -2.05545096
C      -0.18622466      2.15398545     -1.38795874
C       1.62691876      0.33703407      0.74398294
C       2.05534460      1.47241433      1.38411324
C       3.40142629      1.72367644      1.62028720
C       4.31921039      0.78971346      1.18965487
C       3.91933993     -0.36089020      0.54353184
C       2.55903177     -0.58576736      0.32040893
C      -0.35373176     -1.47136187     -0.36889275
C      -0.80185373     -1.56902418     -1.66856889
C      -0.96253428     -2.81875824     -2.23836569
C      -0.69288078     -3.97665227     -1.56024320
C      -0.24298289     -3.88942808     -0.25634377
C      -0.08442215     -2.63164867      0.30803598
I       0.00000000      0.00000000      0.00000000
H      -2.98140325     -0.26670228      2.53171995
H      -2.42794987     -1.06342018      0.97269168
H      -2.11533782     -1.81901038      2.57079647
H      -0.16901248     -0.65385826      2.76819548
H      -0.99069994      0.92942571      2.52088163
H      -2.73622454      1.29516996      0.60724982
H      -3.79646434      3.14106455     -0.57112942
H      -2.57371849      4.39724811     -2.29747490
H      -0.28615353      3.77812978     -2.82081426
H       0.83083119      1.87311773     -1.61552734
H       1.33416361      2.17694896      1.70678257
H       3.75381754      2.60697878      2.11973520
H       5.38479232      0.98881548      1.37672706
H       4.67376442     -1.05494507      0.22899239
H       2.29280604     -1.49264770     -0.18516197
H      -1.01770066     -0.68035834     -2.21465669
H      -1.31521851     -2.91857274     -3.26320114
H      -0.82165016     -4.95924600     -2.01526137
H      -0.02987149     -4.80033875      0.27994316
H       0.27502299     -2.63508092      1.34352897
