14
Oc1c(O)c(Cl)c(Cl)c(Cl)c1Cl
O       0.79164458     -2.39954551      0.04023516
C       0.20397602     -1.16109738      0.02115043
C       1.03149346     -0.04128665     -0.00883559
O       2.38596523     -0.27169997     -0.01694788
C       0.48819663      1.24371203     -0.02926689
Cl      1.58454561      2.58594334     -0.06618511
C      -0.90699948      1.40640103     -0.01943385
Cl     -1.58610492      3.00836722     -0.04488291
C      -1.74712597      0.27141697      0.01097067
Cl     -3.47755537      0.46540050      0.02332058
C      -1.18589973     -1.01882904      0.03133750
Cl     -2.17469805     -2.44329571      0.06887264
H       1.75779566     -2.24300798      0.02807386
H       2.83476631      0.59752114     -0.03840862
