33
C=CC(C)CC/C=C(\C)CCC=O
C      -4.19693270      2.01715395     -0.04126269
C      -3.69046885      0.86692400     -0.50404268
C      -2.92185459     -0.11960341      0.34242233
C      -3.67985640     -1.44905054      0.38570442
C      -1.49359122     -0.34188659     -0.19127215
C      -0.62456332      0.91821304     -0.11649309
C       0.77711551      0.63610312     -0.58617524
C       1.88641013      0.47748438      0.16352907
C       1.92216342      0.53089429      1.66750218
C       3.22956471      0.24907212     -0.50615689
C       3.65694665     -1.21484464     -0.45833783
C       4.97039125     -1.44712257     -1.16194121
O       5.65380539     -0.56844247     -1.67647624
H      -4.08199027      2.31663997      0.99581477
H      -4.74204770      2.68783080     -0.69855832
H      -3.83557729      0.61476507     -1.55338953
H      -2.85013442      0.25352939      1.37274993
H      -4.69167332     -1.31199380      0.78355533
H      -3.76716252     -1.89554103     -0.61141007
H      -3.16426413     -2.16786667      1.03176897
H      -1.01654780     -1.13752890      0.39692941
H      -1.53232921     -0.70267404     -1.22822618
H      -0.63762778      1.32521911      0.89898138
H      -1.03745657      1.70440149     -0.75980953
H       0.87237172      0.57526538     -1.67093223
H       0.93347795      0.62190603      2.12241679
H       2.52157988      1.38522889      1.99848338
H       2.37079625     -0.38155254      2.07263517
H       3.98590937      0.88349337     -0.02613495
H       3.19288749      0.58229726     -1.55205401
H       2.90818761     -1.85074100     -0.94397814
H       3.77695245     -1.55904619      0.57423028
H       5.30551834     -2.49852728     -1.18429569
