29
CC1(C(=O)O)NCCc2cc(O)c(O)cc21
C      -0.60098142      1.18981468      2.08376220
C      -0.92837518      0.90618104      0.60597751
C      -1.18661215      2.27883880     -0.10948024
O      -0.51526359      3.29273763      0.02005842
O      -2.27555948      2.21976698     -0.92702039
N      -2.24065964      0.16364863      0.51874360
C      -2.06773458     -1.27607831      0.73809536
C      -1.20942006     -1.89464027     -0.35998921
C       0.09848656     -1.16538539     -0.51638230
C       1.17064098     -1.81939207     -1.14487927
C       2.37336997     -1.15515198     -1.31927866
O       3.41107153     -1.80098822     -1.92697306
C       2.52744435      0.15507638     -0.88672651
O       3.73750822      0.75703474     -1.09558117
C       1.47427568      0.81991212     -0.26772974
C       0.23309708      0.17317222     -0.08147959
H       0.28599330      1.82606292      2.18709222
H      -0.40332459      0.26907758      2.64358065
H      -1.42320801      1.71985015      2.57951733
H      -2.63123300      1.30062099     -0.83595565
H      -2.85183421      0.52298119      1.25872105
H      -1.63496695     -1.46944007      1.72679556
H      -3.05384690     -1.75386377      0.72892293
H      -1.02649602     -2.94736519     -0.11386386
H      -1.74301123     -1.86131415     -1.31808668
H       1.07158623     -2.84201317     -1.49904333
H       4.13282846     -1.14090770     -1.94180676
H       3.66519690      1.68617602     -0.81435751
H       1.61102776      1.84558820      0.06736707
