27
C#CC(C)N(C(=O)CCl)c1ccccc1
C      -2.82494266     -2.08259181     -1.68950913
C      -2.02550092     -1.81052473     -0.83500929
C      -1.04065795     -1.47336412      0.21429572
C      -1.53322016     -1.88130602      1.60567612
N      -0.63443457     -0.05327712      0.12218639
C      -1.57423890      0.95185307      0.38208170
O      -2.68690508      0.71150854      0.86236785
C      -1.25161415      2.37706307     -0.04878951
Cl     -1.13489378      3.42669389      1.37869806
C       0.74825545      0.19875748     -0.11722018
C       1.47809483      1.04909572      0.72198965
C       2.83607379      1.28071900      0.49005337
C       3.47883780      0.65747310     -0.57694325
C       2.76712892     -0.20440156     -1.40799960
C       1.40973419     -0.43828745     -1.17563215
H      -3.54454919     -2.31755261     -2.43957675
H      -0.15700865     -2.09911716      0.03271242
H      -1.63801532     -2.97091342      1.66775670
H      -2.51193563     -1.46027593      1.85362996
H      -0.82268655     -1.56644107      2.37744618
H      -0.34429505      2.47176485     -0.64582669
H      -2.07998198      2.73804953     -0.66715333
H       1.01703829      1.50904294      1.59198808
H       3.39398201      1.93970941      1.15121778
H       4.53601349      0.83789732     -0.75598826
H       3.26782698     -0.69323924     -2.24019067
H       0.87189479     -1.09833569     -1.85226119
