80
CCCCCCCCCCCCCCCCCC(=O)OCCCCCCCC
C     -13.46741830      1.65941796      0.79100719
C     -12.55297946      0.94723344      1.77588208
C     -11.06384351      1.10713282      1.45765317
C     -10.64649447      0.41886584      0.15519966
C      -9.15851430      0.58561810     -0.17086815
C      -8.23314572     -0.14333086      0.80650779
C      -6.77043316     -0.04080322      0.36431587
C      -5.84221773     -0.76096394      1.34507507
C      -4.35666863     -0.58778495      1.01206543
C      -3.94928118     -1.25620789     -0.30398313
C      -2.43383338     -1.25560560     -0.53628705
C      -1.85514231      0.14860490     -0.72845935
C      -0.38425422      0.14310500     -1.16009953
C       0.55303925     -0.44145658     -0.10003554
C       2.03664997     -0.22552819     -0.41771439
C       2.50759402     -0.98250858     -1.66415637
C       3.99487299     -0.77558802     -1.93958071
C       4.85809050     -1.44752245     -0.90087281
O       4.89588456     -2.65539600     -0.71273115
O       5.56719697     -0.51974409     -0.20214056
C       6.41039225     -1.06578476      0.81905267
C       7.13454814      0.07357189      1.53263480
C       7.97146469      0.97180908      0.61424939
C       9.12241565      0.23196969     -0.07236660
C       9.99670134      1.19802735     -0.87609725
C      11.09308814      0.49784962     -1.68523226
C      12.10497918     -0.31146619     -0.87057916
C      12.87514235      0.52123672      0.14221229
H     -13.20304512      2.71799754      0.70369109
H     -14.50626692      1.59733367      1.13119138
H     -13.41842294      1.20598545     -0.20328066
H     -12.73818330      1.35531540      2.77681189
H     -12.81462463     -0.11663250      1.81434160
H     -10.49878634      0.68244781      2.29500960
H     -10.81088929      2.17336595      1.41162520
H     -11.21669766      0.84150149     -0.67981180
H     -10.89556177     -0.64821441      0.20212006
H      -8.98626521      0.19559719     -1.18197369
H      -8.90461828      1.65244873     -0.19763297
H      -8.52333843     -1.19891877      0.87088857
H      -8.33373398      0.28390433      1.81022084
H      -6.48265322      1.01506288      0.29365196
H      -6.66740071     -0.47443019     -0.63664482
H      -6.01315247     -0.36752152      2.35494353
H      -6.09144960     -1.82859781      1.37648022
H      -3.77013499     -1.02258674      1.83073212
H      -4.11868408      0.48156555      0.98373516
H      -4.44159507     -0.76218924     -1.14927154
H      -4.29447102     -2.29752312     -0.29916287
H      -1.94136123     -1.75640107      0.30491257
H      -2.22468351     -1.85548698     -1.43028326
H      -2.43500473      0.67430450     -1.49708437
H      -1.95422447      0.72808479      0.19614063
H      -0.28874131     -0.41458877     -2.09867039
H      -0.08716459      1.17746794     -1.37299643
H       0.33969895      0.03091525      0.86672857
H       0.36433992     -1.51425525      0.02168991
H       2.23390427      0.84670035     -0.53819036
H       2.61769428     -0.55763834      0.45122409
H       1.94965967     -0.63346558     -2.54019021
H       2.29201810     -2.05159590     -1.54777113
H       4.26558895     -1.20469852     -2.91119740
H       4.23150119      0.29353698     -1.99348576
H       7.12860008     -1.76416551      0.37588925
H       5.79348610     -1.60783130      1.54565565
H       7.77000754     -0.34103537      2.32379579
H       6.38546909      0.70980782      2.02041322
H       8.38159918      1.78968750      1.22017821
H       7.32715162      1.43695066     -0.14165255
H       9.72575127     -0.27617824      0.68808925
H       8.72556431     -0.53640583     -0.74505030
H      10.44135118      1.94300452     -0.20643865
H       9.36255054      1.75532867     -1.57699231
H      10.62272715     -0.17092261     -2.41697018
H      11.63197874      1.25738004     -2.26538256
H      11.60725160     -1.14253883     -0.35890265
H      12.82217872     -0.76444551     -1.56592300
H      13.36756201      1.37094430     -0.34113411
H      12.21885441      0.90245610      0.93010173
H      13.64683236     -0.08988070      0.62118045
