16
O=c1cnc2c(=O)[nH]cnc2[nH]1
O       3.45921192     -1.21405669      0.48512795
C       2.38127720     -0.67831532      0.29060247
C       2.31764877      0.78119825     -0.11410081
N       1.20948700      1.42117170     -0.33864726
C       0.04499374      0.68708663     -0.18725256
C      -1.28418905      1.33627665     -0.42397191
O      -1.42008251      2.51048027     -0.75325417
N      -2.37309872      0.52764631     -0.24875478
C      -2.25903450     -0.77777135      0.11571313
N      -1.13586696     -1.37219923      0.32837118
C      -0.00908833     -0.61451303      0.16883199
N       1.15860337     -1.28298249      0.40381974
H       3.29445786      1.28032568     -0.20897301
H      -3.27417878      0.95552254     -0.40586587
H      -3.22128058     -1.30381984      0.21863506
H       1.11113957     -2.25605009      0.66971884
