8
FC(F)(F)C(Cl)(Cl)Cl
F      -1.37055788      0.24818697      1.18932072
C      -0.80645508     -0.14983633      0.02086409
F      -1.08488964     -1.47108835     -0.11585687
F      -1.47199256      0.49319769     -0.97185560
C       0.70542138      0.13106464     -0.01825022
Cl      1.56058092     -0.73525992      1.31010843
Cl      1.42494323     -0.40763441     -1.57980212
Cl      1.04294964      1.89136970      0.16547156
