53
OCCOCCN1CCN(C(c2ccccc2)c2ccc(Cl)cc2)CC1
O       7.51430014     -0.81891696     -1.47063259
C       6.69749802      0.32973199     -1.69686035
C       5.69361022      0.47516149     -0.55788234
O       4.88758514     -0.70812706     -0.53372519
C       3.98421213     -0.76114539      0.57269838
C       2.90330092      0.34393222      0.58870791
N       2.22304515      0.59124812     -0.69504797
C       1.49628978     -0.58038774     -1.21681771
C       0.19510687     -0.92358148     -0.45355471
N      -0.75409248      0.21621094     -0.39597739
C      -1.96196812     -0.12215597      0.41598877
C      -2.94399456      1.04627882      0.57876287
C      -3.46001035      1.35552188      1.84917556
C      -4.36760621      2.40389608      2.01459944
C      -4.77643425      3.15427258      0.91434115
C      -4.28027869      2.85776150     -0.35281595
C      -3.37308668      1.81024075     -0.52066174
C      -2.72261098     -1.35345015     -0.10095622
C      -3.16868818     -2.33141957      0.80573388
C      -3.88029130     -3.44762269      0.35780164
C      -4.15788058     -3.59416109     -0.99923221
Cl     -5.03338669     -4.96992938     -1.54841540
C      -3.73215625     -2.63444868     -1.91332182
C      -3.02137013     -1.51834848     -1.46587503
C      -0.04128762      1.39445916      0.15692809
C       1.27233908      1.71621282     -0.59711900
H       6.88179678     -1.53667450     -1.26967410
H       6.18531360      0.18817303     -2.65391490
H       7.34520338      1.20803715     -1.76377448
H       5.07338409      1.35975481     -0.72735220
H       6.22281473      0.56503711      0.39734755
H       4.55985116     -0.73023176      1.50566946
H       3.50255322     -1.74429658      0.54014881
H       2.19139871      0.11016493      1.38887400
H       3.40079339      1.27554298      0.88658647
H       2.14456008     -1.46244746     -1.25486218
H       1.23816057     -0.37671870     -2.26527047
H       0.44677637     -1.26633196      0.55854286
H      -0.25863307     -1.77244189     -0.97596708
H      -1.59200008     -0.37344234      1.42166853
H      -3.16085361      0.77809119      2.72064639
H      -4.75945354      2.63262886      3.00212192
H      -5.48462456      3.96847000      1.04343480
H      -4.59985916      3.44037225     -1.21277407
H      -2.99034330      1.59517639     -1.51578255
H      -2.96939750     -2.22728164      1.86994215
H      -4.21826706     -4.19415121      1.07139447
H      -3.94958661     -2.74513933     -2.97204685
H      -2.69007139     -0.77564738     -2.18895842
H      -0.66787408      2.28960319      0.08380818
H       0.17904091      1.24320550      1.22160459
H       1.01888052      2.03571123     -1.61709096
H       1.75829206      2.58360239     -0.13324853
