28
Cc1ccc(-c2ccc(C)cc2)cc1
C      -5.03290616      0.51150664      0.23508205
C      -3.54472916      0.33217969      0.19093197
C      -2.69941642      1.25940039      0.80736148
C      -1.31048006      1.10863189      0.73822178
C      -0.73065290      0.03466879      0.04489312
C       0.73132059     -0.12292027     -0.02645244
C       1.35005075     -1.32324788      0.35654476
C       2.73907431     -1.47430543      0.28983539
C       3.54606435     -0.42261060     -0.15398953
C       5.03205430     -0.59484136     -0.25862303
C       2.94011853      0.77237671     -0.55283296
C       1.55093510      0.92083490     -0.48377742
C      -1.58945277     -0.88180987     -0.58190111
C      -2.97873714     -0.73302794     -0.51562756
H      -5.54432675     -0.45601671      0.19526455
H      -5.36171610      1.12080346     -0.61236443
H      -5.33983126      1.00248426      1.16458189
H      -3.11409560      2.10570623      1.35022123
H      -0.67818249      1.83680263      1.24232721
H       0.74919193     -2.15353641      0.72225640
H       3.18426898     -2.41973337      0.59125868
H       5.29456647     -0.98879840     -1.24523851
H       5.54741595      0.35988824     -0.10986013
H       5.40027942     -1.28494278      0.50779890
H       3.54349089      1.59827105     -0.92260179
H       1.10722103      1.86052489     -0.80667285
H      -1.17773155     -1.71757828     -1.14416305
H      -3.61379424     -1.45600629     -1.02247460
