37
CCOP(=O)(OCC)SCn1nnc2ccccc2c1=O
C      -5.04232647      2.60663220      1.47499481
C      -3.98436867      2.63487360      0.39136255
O      -3.67154912      1.30102582      0.02907206
P      -2.44257467      1.08795463     -0.99974252
O      -2.49758957      2.04461472     -2.15620076
O      -2.67254941     -0.43610579     -1.48434793
C      -2.69046093     -1.46970316     -0.51550370
C      -3.00395488     -2.77754488     -1.21309094
S      -0.62439815      1.27825962     -0.01565364
C       0.49067199      0.92563366     -1.39348509
N       1.82638588      0.62160247     -0.91884994
N       2.66449863      1.68722536     -0.74731591
N       3.83257567      1.54007098     -0.32929392
C       4.30226806      0.26266713     -0.00462102
C       5.61248130      0.12322546      0.46872516
C       6.12248955     -1.13464796      0.80619088
C       5.32410494     -2.26989358      0.67306443
C       4.01833222     -2.14515056      0.20294363
C       3.52549103     -0.87774495     -0.12997061
C       2.16724710     -0.68471907     -0.62881143
O       1.41871701     -1.64889051     -0.76504948
H      -4.68029518      2.06100088      2.35292544
H      -5.31789219      3.62049669      1.77840439
H      -5.93968366      2.08585524      1.12484511
H      -3.08621528      3.14191647      0.75699345
H      -4.36135410      3.16862427     -0.48654714
H      -3.45245098     -1.25893772      0.24080527
H      -1.71371267     -1.53621905     -0.02793930
H      -2.25292678     -2.99488330     -1.98001474
H      -3.97214595     -2.72095490     -1.72185784
H      -3.02812418     -3.60523949     -0.49878465
H       0.53387543      1.79048155     -2.06386589
H       0.10406738      0.07532556     -1.96388562
H       6.24141125      1.00421328      0.57594374
H       7.14245647     -1.22614060      1.17294593
H       5.71845959     -3.24902149      0.93469982
H       3.38903936     -3.02590258      0.09620533
