48
COc1cc(O)c(CC=C(C)C)c2c1C(=O)CC(c1ccc(O)cc1)O2
C       1.46358126      5.55182724     -0.91276310
O       0.44994738      4.55747913     -0.86723726
C       0.76861813      3.32007306     -0.38077342
C       2.05950019      2.95929103      0.01558409
C       2.32310094      1.68237910      0.51191195
O       3.62552938      1.43446444      0.84631023
C       1.31229663      0.72529817      0.64886068
C       1.59052199     -0.64328806      1.23847723
C       2.20963927     -1.58027491      0.23527020
C       3.36782875     -2.26426628      0.32796673
C       3.81500563     -3.15950386     -0.80055054
C       4.30823305     -2.24621372      1.50177483
C       0.02078362      1.07498577      0.20947954
C      -0.26046152      2.36567062     -0.28291979
C      -1.67689838      2.67363530     -0.64890205
O      -2.03552389      3.74512004     -1.12576566
C      -2.69253429      1.60565805     -0.35630744
C      -2.03073138      0.26540024     -0.59823364
C      -3.01665841     -0.87020299     -0.39385403
C      -3.34164493     -1.33639374      0.89147655
C      -4.26674521     -2.36892201      1.06452904
C      -4.87490706     -2.93550282     -0.04976556
O      -5.78349514     -3.94451192      0.07203363
C      -4.57452718     -2.48624048     -1.32918376
C      -3.64991460     -1.45474179     -1.50247983
O      -0.93904134      0.09555875      0.31399008
H       1.85622507      5.76325404      0.08725655
H       1.01153656      6.47269976     -1.29364924
H       2.26484334      5.26559523     -1.60173329
H       2.89349754      3.65076847     -0.05242160
H       3.77679789      0.47421215      0.82321151
H       2.20795499     -0.51169376      2.13228672
H       0.66703654     -1.10145572      1.61182965
H       1.60842675     -1.70990980     -0.66643920
H       3.90831444     -4.19283282     -0.45065784
H       4.78773958     -2.83085194     -1.18097031
H       3.11180317     -3.15523773     -1.64000381
H       3.95856648     -1.63047700      2.33244826
H       5.28488817     -1.85858342      1.19344660
H       4.44681097     -3.26172534      1.88777834
H      -3.02479045      1.73036062      0.68086912
H      -3.55217482      1.73979787     -1.02262146
H      -1.62768826      0.19682951     -1.61950480
H      -2.87018599     -0.89715127      1.76870929
H      -4.49649136     -2.71266067      2.06796330
H      -5.89406695     -4.14890224      1.01491890
H      -5.06034685     -2.93676223     -2.19019865
H      -3.43019968     -1.11205207     -2.51144676
