45
CC1CN(S(=O)(=O)NC(=O)NCC2CC3C=CC2C3)CCO1
C      -3.25473181      2.09710912      0.61318071
C      -3.96335540      1.26028225     -0.45129905
C      -3.12628914      0.05040553     -0.91122795
N      -3.07242898     -0.99117939      0.16882792
S      -2.09412325     -2.32776660     -0.18401078
O      -2.38650586     -2.78589263     -1.51707698
O      -2.18927148     -3.22289090      0.94872643
N      -0.59524953     -1.66154931     -0.06612009
C       0.16518484     -1.13558598     -1.09151198
O      -0.23357635     -0.96839510     -2.23208404
N       1.41698252     -0.79127922     -0.67022111
C       2.41414643     -0.30839626     -1.59767763
C       3.67666173      0.27017131     -0.95833155
C       4.46880348     -0.69917181     -0.02521984
C       4.74144767      0.17673127      1.21955245
C       3.42573333      0.39243286      1.93117460
C       2.69213587      1.21502727      1.16605273
C       3.50872215      1.53113518     -0.06688511
C       4.89542089      1.56748941      0.59435611
C      -4.47493806     -1.38456944      0.52793682
C      -5.25339871     -0.14973452      0.98694547
O      -5.27852826      0.87023961     -0.01945576
H      -2.32831729      2.52540440      0.21743953
H      -3.90232150      2.91403971      0.94859402
H      -2.99942073      1.50799342      1.49935253
H      -4.11713404      1.90966020     -1.32133767
H      -2.12227267      0.39711038     -1.16355831
H      -3.58893546     -0.38578761     -1.80479860
H      -0.24061411     -1.69849105      0.87776564
H       1.71790563     -1.12488399      0.23182416
H       2.68467299     -1.15435105     -2.24086835
H       1.94754644      0.44758542     -2.24042908
H       4.34514272      0.54079278     -1.78923281
H       3.92208801     -1.61537004      0.22019389
H       5.41129650     -0.98448631     -0.50697422
H       5.56357794     -0.14286878      1.86040786
H       3.13803505     -0.04790441      2.87402435
H       1.69092233      1.56754830      1.36432644
H       3.22870396      2.44865384     -0.58601280
H       5.00674032      2.37095463      1.33408713
H       5.72084188      1.63003141     -0.12398984
H      -4.96210358     -1.82768801     -0.34884562
H      -4.46942525     -2.11536461      1.34249776
H      -4.83795022      0.26037930      1.91363952
H      -6.29182097     -0.42757058      1.19474701
