32
CCN(CC)C(=O)N(CC)CC
C      -2.80188963     -1.82300106      1.25663345
C      -2.36437627     -0.38073996      1.03863811
N      -1.16444955     -0.23372297      0.20996089
C      -1.27029157     -0.62181879     -1.20398528
C      -2.25093576      0.22676032     -1.99787203
C       0.05878672     -0.36902000      0.87395326
O       0.13494002     -0.84705590      2.00609147
N       1.19064622      0.06928149      0.17948629
C       2.48270484     -0.36204009      0.72049545
C       3.01092930      0.51080093      1.85106377
C       1.15349825      1.35496822     -0.53233800
C       1.99559148      1.37610555     -1.79821238
H      -3.65176973     -1.85703695      1.94565313
H      -3.11678660     -2.28999715      0.31859077
H      -1.99579124     -2.42999009      1.67955484
H      -3.17593176      0.19532413      0.58355211
H      -2.16985900      0.08165132      2.01426469
H      -1.56776504     -1.67563330     -1.24391810
H      -0.29221983     -0.58462705     -1.69005332
H      -3.27984509      0.07935916     -1.65660273
H      -2.01417661      1.29157422     -1.91022031
H      -2.21334315     -0.04697767     -3.05707543
H       3.20862610     -0.40055163     -0.09750871
H       2.37843478     -1.39093904      1.08653459
H       3.23914846      1.52186575      1.50058782
H       3.93431239      0.08346103      2.25473114
H       2.28825259      0.59413711      2.66830638
H       0.12583906      1.62905125     -0.78346480
H       1.49476277      2.13389047      0.15862357
H       3.06252345      1.28483291     -1.57422218
H       1.85095837      2.32174549     -2.33028717
H       1.71947604      0.55834229     -2.47096131
