31
NC(=O)N1c2ccccc2C2OC2c2ccccc21
N      -0.67280094      2.87053331      1.47490947
C       0.42575977      2.25597544      0.93875184
O       1.48366888      2.88094001      0.94441990
N       0.23428616      0.93470921      0.51706765
C      -1.06066043      0.43132802      0.13084257
C      -1.90333986      1.23419505     -0.66337242
C      -3.14672951      0.77035508     -1.09073557
C      -3.56563556     -0.50398367     -0.73391046
C      -2.74249796     -1.30699475      0.05550706
C      -1.48352476     -0.86240192      0.50764419
C      -0.68041121     -1.74483484      1.41947327
O      -0.09505653     -2.92492806      0.84515524
C       0.80879914     -1.88581785      1.25547248
C       1.55057968     -1.14598250      0.17798575
C       2.58169075     -1.80872029     -0.51914144
C       3.37742237     -1.14875908     -1.45464824
C       3.16356110      0.19859719     -1.70939652
C       2.14382383      0.87723667     -1.04188977
C       1.31890967      0.21905702     -0.10986901
H      -0.45351140      3.74609106      1.93221042
H      -1.33136279      2.28058328      1.96353967
H      -1.57963787      2.22163854     -0.98637898
H      -3.77750271      1.39935008     -1.71360557
H      -4.52922580     -0.87775601     -1.07072540
H      -3.08346476     -2.30441229      0.32976436
H      -1.05672000     -1.84073164      2.43404368
H       1.37063498     -2.06958038      2.16718042
H       2.77078722     -2.86119472     -0.31368155
H       4.16702553     -1.68523564     -1.97394243
H       3.78234907      0.72476078     -2.43143530
H       1.98278390      1.92598291     -1.28123533
