9
CSC
C       1.36394646     -0.13597552      0.24531890
S       0.02268526     -0.22440429     -0.96446247
C      -1.36295085      0.12612875      0.14346823
H       2.31562008     -0.32828506     -0.25715538
H       1.22408681     -0.88951811      1.02474002
H       1.40434883      0.85857709      0.69711240
H      -1.42698020     -0.63470205      0.92572213
H      -1.24671998      1.11339319      0.59809281
H      -2.29403641      0.11478602     -0.42932851
