23
CCOC(=O)CC(=O)OCC
C       4.63500006      0.60077499      0.62562388
C       3.54659136     -0.09386557     -0.16921905
O       2.28579940      0.47510479      0.20663264
C       1.21123667     -0.08118721     -0.42265638
O       1.27675676     -0.95577759     -1.27547104
C      -0.04923501      0.59147742      0.01875246
C      -1.17312904     -0.37652889      0.20831501
O      -1.07531214     -1.46402570      0.75992775
O      -2.33872776      0.16072158     -0.25308800
C      -3.48131790     -0.69024625     -0.09519722
C      -4.68703593      0.02425432     -0.67370204
H       4.62985753      1.67762589      0.42696238
H       4.46763449      0.47451241      1.70040269
H       5.62006988      0.19937529      0.37187688
H       3.71570767      0.05988639     -1.24083426
H       3.55085557     -1.16622046      0.05612371
H      -0.30400690      1.33743357     -0.74148342
H       0.10044524      1.10796144      0.97277464
H      -3.31787339     -1.63268318     -0.62983815
H      -3.64640669     -0.89219131      0.96902204
H      -4.52819497      0.25271992     -1.73279405
H      -4.85100110      0.97901360     -0.16316178
H      -5.58771380     -0.58813546     -0.57556857
