6
ClC(Cl)=C(Cl)Cl
Cl     -1.47474368      1.59847091     -0.03982856
C      -0.66950985      0.05882711      0.00512943
Cl     -1.73010360     -1.31687471      0.06438325
C       0.66950985     -0.05882694     -0.00512960
Cl      1.47474310     -1.59847103      0.03982968
Cl      1.73010419      1.31687466     -0.06438420
