38
CCCCCCCCCCOC(C)=O
C      -6.49531756      0.55509774     -0.51427884
C      -5.46552577     -0.49298882     -0.12340676
C      -4.06968886      0.11682869      0.01463552
C      -3.03837695     -0.94450023      0.40442902
C      -1.64311067     -0.37151456      0.67514944
C      -0.96585748      0.19365095     -0.57621770
C       0.42935214      0.76671821     -0.30548172
C       1.46058345     -0.29451806      0.08451704
C       2.85536587      0.31469411      0.22263648
C       3.88961175     -0.73532382      0.61753162
O       5.17580381     -0.11893991      0.78723305
C       5.93036164     -0.00562038     -0.33994101
C       7.23872456      0.64713447     -0.01363108
O       5.60287475     -0.37250921     -1.45922824
H      -7.48534863      0.09770323     -0.60666849
H      -6.55554957      1.34622177      0.23992420
H      -6.24237239      1.01450793     -1.47516044
H      -5.45240455     -1.28478817     -0.88144270
H      -5.76588841     -0.95534686      0.82406629
H      -3.78902404      0.58417469     -0.93562451
H      -4.08861182      0.90804181      0.77377263
H      -3.37878750     -1.45404936      1.31461280
H      -2.97678654     -1.70845040     -0.38016100
H      -1.02999487     -1.17918775      1.09020968
H      -1.70790718      0.40590137      1.44587983
H      -1.57901348      1.00126046     -0.99133880
H      -0.90097481     -0.58379792     -1.34690875
H       0.36773454      1.53077708      0.47900020
H       0.76976685      1.27615339     -1.21573323
H       1.47994163     -1.08544224     -0.67484515
H       1.17965224     -0.76168531      1.03471293
H       2.84773666      1.11473878      0.97339215
H       3.15275430      0.79075754     -0.71948162
H       3.93749661     -1.55466287     -0.10977232
H       3.62301818     -1.18040956      1.58237430
H       7.78425742      0.04118494      0.71412032
H       7.84158896      0.72511263     -0.92294223
H       7.06391572      1.65307565      0.37606935
