40
CC(C)OC(=O)C1(S(=O)(=O)c2ccc(Cl)cc2)CCCC1
C       3.78346781      1.49449665     -1.31782064
C       2.56097305      1.52321655     -0.40909736
C       1.85913486      2.87364215     -0.48915299
O       1.66996706      0.48860549     -0.86873399
C       0.78190049     -0.00603139      0.03285174
O       0.71290128      0.36261291      1.19946428
C      -0.11689005     -1.06875806     -0.56562576
S      -1.63392420     -0.25519987     -1.01351933
O      -1.31932167      0.89066522     -1.84820343
O      -2.56347310     -1.25841670     -1.50597287
C      -2.35100511      0.37833053      0.49141155
C      -3.17097499     -0.44978239      1.26581495
C      -3.76153782      0.05637893      2.42568673
C      -3.54509409      1.38512998      2.79265060
Cl     -4.27487310      2.00448143      4.22216613
C      -2.75095834      2.21813411      2.00418537
C      -2.15869600      1.71857540      0.84230436
C       0.49387174     -1.80605074     -1.76791289
C       1.46139144     -2.81270227     -1.15368781
C       0.92385484     -3.10803874      0.24419056
C      -0.31353563     -2.22875693      0.41959322
H       3.50049301      1.65680979     -2.36385167
H       4.26767669      0.51287406     -1.27248201
H       4.51300699      2.25691996     -1.02840532
H       2.88602171      1.31939485      0.61827007
H       0.99099987      2.90173084      0.17674683
H       1.48394727      3.06076688     -1.50135834
H       2.53333454      3.68810418     -0.20709958
H      -3.36491280     -1.47955755      0.97344489
H      -4.39526105     -0.58480964      3.03338305
H      -2.59342049      3.25623306      2.28597131
H      -1.55256139      2.37882392      0.22593071
H      -0.27991505     -2.35358433     -2.32133636
H       0.99220536     -1.15567594     -2.49343586
H       1.53468417     -3.71940232     -1.76255901
H       2.46739014     -2.38318501     -1.08270588
H       0.67630130     -4.16720441      0.36864414
H       1.68207446     -2.85875626      0.99544061
H      -1.20401790     -2.81606852      0.16376285
H      -0.42522528     -1.91394584      1.46220402
