20
CC(=O)Nc1cccc(O)c1
C       3.40269538      1.00553910      0.58911174
C       1.90289164      1.11569194      0.46877115
O       1.33656828      2.18707405      0.65401166
N       1.31111539     -0.09824666      0.16932829
C      -0.06353768     -0.36281674     -0.01017079
C      -0.42660120     -1.68630283     -0.30013176
C      -1.76670378     -2.03372732     -0.49329598
C      -2.75619531     -1.05981058     -0.39831929
C      -2.39765741      0.25078739     -0.11168724
O      -3.39666227      1.17705733     -0.02687312
C      -1.06325971      0.60812054      0.08257718
H       3.66125573      0.67125077      1.59720424
H       3.80426425      0.30251097     -0.14637557
H       3.85453660      1.98422413      0.40329698
H       1.92896395     -0.89429289      0.07392403
H       0.32584385     -2.46650565     -0.37999104
H      -2.03799314     -3.06190319     -0.71731062
H      -3.80070819     -1.31830141     -0.54638775
H      -2.99672994      2.03878841      0.18100050
H      -0.82208644      1.64086266      0.30329611
