26
Cc1cc2cc3c(C)cc(=O)oc3cc2o1
C       4.77194963     -0.76370250      0.24824283
C       3.32709541     -0.48820097      0.12706098
C       2.59607262      0.49400519     -0.50762941
C       1.22803335      0.21030325     -0.25190159
C      -0.00444814      0.80207712     -0.59798597
C      -1.20476351      0.22053073     -0.14732096
C      -2.52952509      0.77669358     -0.46494810
C      -2.64869690      2.01603183     -1.30262179
C      -3.61679623      0.15167708      0.01010755
C      -3.56113363     -1.06415329      0.83470023
O      -4.58931124     -1.59254541      1.24131189
O      -2.30432421     -1.56617108      1.11860702
C      -1.13396343     -0.93774220      0.63742046
C       0.06882335     -1.55328178      1.00103447
C       1.22106823     -0.93808688      0.52968162
O       2.49386762     -1.36164532      0.75947799
H       5.36104669     -0.01395569     -0.28881718
H       5.07763328     -0.74906316      1.29884771
H       5.01037195     -1.74712495     -0.16824558
H       2.99989366      1.31419032     -1.08412601
H       0.00115009      1.69897191     -1.20841134
H      -2.14424690      2.86083348     -0.82166931
H      -3.69436070      2.30735277     -1.45286905
H      -2.21177471      1.85883438     -2.29452046
H      -4.61974060      0.51242540     -0.18933133
H       0.10607942     -2.44825381      1.60818692
