20
CC1CCCCC1=O
C      -2.39599268     -0.26128288     -0.43146671
C      -1.02368278     -0.12158572      0.21964480
C      -0.06597201     -1.19890171     -0.29862786
C       1.33977576     -1.03296316      0.27691411
C       1.90323389      0.34871078     -0.04445447
C       0.99721341      1.45855266      0.46822424
C      -0.41998593      1.25804050     -0.02462887
O      -1.06049039      2.19092755     -0.50703194
H      -2.81995008     -1.25242506     -0.23969826
H      -2.33949550     -0.11712676     -1.51611181
H      -3.09344835      0.48473137     -0.03526560
H      -1.14219481     -0.22768186      1.30540995
H      -0.00933011     -1.15487912     -1.39413509
H      -0.44738547     -2.19332203     -0.03799902
H       1.99915059     -1.80359963     -0.13806892
H       1.31535082     -1.18053412      1.36342169
H       2.02056075      0.44500029     -1.13117678
H       2.90058445      0.45339860      0.39697371
H       0.97757933      1.47524528      1.56328530
H       1.36447909      2.42969502      0.12017220
