52
CCCCCCCC[Sn](=O)CCCCCCCC
C      -8.08395709      1.24016182      0.10779253
C      -7.29588617     -0.05340388     -0.06183488
C      -5.92040919      0.34675291     -0.55939711
C      -5.03486972     -0.87142301     -0.76788956
C      -3.69279428     -0.35576240     -1.26284784
C      -2.72829868     -1.48586677     -1.50971228
C      -2.48175297     -2.27397003     -0.25411875
C      -1.90757972     -1.40028067      0.81016953
Sn     -0.03750392     -0.55140251      0.14724283
O      -0.11968517      0.45467522     -1.33420583
C       1.23110104      0.23211246      1.72054263
C       2.51626405      0.68386362      1.01128545
C       3.50062624      1.25363705      1.97582027
C       4.73375229      1.68898994      1.24099129
C       5.37836990      0.52289303      0.53076250
C       6.61888264      1.02899885     -0.17988886
C       7.32216717     -0.09393584     -0.91943949
C       6.43422508     -0.71849980     -1.95453246
H      -7.56342753      1.83156630      0.89145023
H      -9.13188513      1.00778641      0.35377473
H      -8.01707211      1.78785324     -0.86776699
H      -7.78905455     -0.70941280     -0.80002726
H      -7.24300929     -0.60278424      0.89417090
H      -5.46411183      0.98473565      0.19716607
H      -6.06542080      0.85439641     -1.53632305
H      -4.86839591     -1.35088369      0.22179395
H      -5.43821613     -1.56779621     -1.52016628
H      -3.84521800      0.18523348     -2.24679212
H      -3.24636709      0.36297766     -0.55346726
H      -1.78172551     -1.08645274     -1.90051825
H      -3.12017173     -2.17978049     -2.28877380
H      -3.40656693     -2.74991150      0.13404756
H      -1.69826594     -3.05884073     -0.47698017
H      -1.71628373     -1.96042681      1.76559300
H      -2.54884430     -0.55019544      1.10585827
H       0.73302841      1.08296662      2.21059260
H       1.46509666     -0.56041644      2.43807703
H       2.87849753     -0.22147689      0.49254622
H       2.27636137      1.44306218      0.24218036
H       3.73037949      0.52420675      2.77976963
H       3.05787635      2.15240478      2.47577709
H       4.44170776      2.47529482      0.50573644
H       5.44259577      2.12504462      1.98395526
H       5.59997508     -0.27865445      1.24261421
H       4.68106538      0.19783173     -0.28968369
H       7.31654582      1.43155322      0.58253907
H       6.32482362      1.86084658     -0.85140188
H       8.20767841      0.36645072     -1.41895392
H       7.68926141     -0.81293020     -0.18045990
H       6.17342931     -1.75873764     -1.67301302
H       6.96725541     -0.77062807     -2.92217273
H       5.52580723     -0.10242281     -2.13661775
