22
C[C@@H](Oc1cc(Cl)c(Cl)cc1Cl)C(=O)O
C       2.61442416     -1.25702108     -0.73210299
C       1.55000321     -0.28923329     -0.22647678
O       0.46987363     -1.08705910      0.28263147
C      -0.74934177     -0.48452875      0.11277224
C      -1.31290517      0.15533537      1.21844548
C      -2.57354689      0.74885967      1.11486708
Cl     -3.20656578      1.54328487      2.51178477
C      -3.27784818      0.68312010     -0.09405812
Cl     -4.83873216      1.39675152     -0.29494071
C      -2.72490277      0.01612652     -1.19176885
C      -1.46581601     -0.57648331     -1.08595714
Cl     -0.84111060     -1.42294347     -2.45293692
C       2.15360679      0.60869882      0.85429773
O       1.82716569      0.68223048      2.02811661
O       3.13316909      1.40994297      0.38074172
H       2.99393811     -1.88054992      0.08561648
H       3.46299701     -0.72873320     -1.17781187
H       2.19573870     -1.93642107     -1.48173147
H       1.21845742      0.35516823     -1.05136772
H      -0.76711325      0.18654927      2.15940192
H      -3.27964884     -0.04879070     -2.12488135
H       3.41815761      1.92569605      1.16535840
