39
O=C(c1cc(N2CC2)c([N+](=O)[O-])cc1[N+](=O)[O-])N1CCCCC1
O       1.46480199     -2.05583888      1.29900213
C       1.08422625     -1.18992751      0.51784614
C      -0.35310415     -1.19361425      0.20479674
C      -1.14402369     -0.13307444      0.68449511
C      -2.53831506     -0.12930830      0.50345658
N      -3.39397902      0.91645907      0.93336763
C      -2.92879490      2.30622974      0.94409129
C      -3.15056885      1.56823083      2.22532168
C      -3.09516345     -1.24755922     -0.15276167
N      -4.52551823     -1.30499734     -0.36976504
O      -5.22605357     -1.67654783      0.58013121
O      -4.92163737     -1.04506134     -1.51386151
C      -2.33304181     -2.32314976     -0.62895353
C      -0.95193833     -2.27787684     -0.43714764
N      -0.14165533     -3.35437212     -0.97467856
O       0.78713763     -3.03487121     -1.72825199
O      -0.49419522     -4.50938430     -0.70610158
N       1.89073675     -0.19283038     -0.03109886
C       1.57014370      0.45455352     -1.30765264
C       2.23160757      1.82285244     -1.43375077
C       3.73229076      1.73815720     -1.17580715
C       4.00227530      1.08787557      0.17681225
C       3.31621221     -0.26977274      0.28856346
H      -0.64777295      0.67843489      1.21290876
H      -3.68749225      3.00501593      0.61581157
H      -1.92524231      2.49271282      0.59281386
H      -2.30762664      1.21404692      2.80031202
H      -4.06275192      1.75298116      2.77791954
H      -2.80619443     -3.16198527     -1.13617523
H       1.91750825     -0.21360858     -2.10537835
H       0.49047142      0.56460695     -1.43465185
H       2.04712670      2.23488700     -2.43192744
H       1.77981877      2.51250506     -0.70975601
H       4.21170394      1.15287528     -1.96981650
H       4.17237557      2.74109376     -1.20195005
H       5.08120074      0.97346341      0.32840926
H       3.63212814      1.74734130      0.97185976
H       3.45258052     -0.66006629      1.30340260
H       3.77072326     -0.99047625     -0.40241916
