59
CCCCOCCOCCOCOCCOCCOCCCC
C       6.43199213     -0.97231351     -1.15543337
C       7.34778512     -0.60600626      0.00640959
C       6.80959278      0.53601163      0.86551675
C       5.49251217      0.21051405      1.56340282
O       5.11942224      1.33324040      2.36536523
C       3.69934064      1.49515357      2.48841106
C       3.14797662      2.39355362      1.36666877
O       3.15574316      1.76018289      0.08164737
C       2.02698976      0.91744180     -0.13935289
C       2.19518031      0.21246401     -1.48441868
O       1.10075362     -0.65148172     -1.77521551
C       0.01114673      0.02372174     -2.38934933
O      -1.04815323     -0.90634130     -2.57983394
C      -2.22162166     -0.27700111     -3.10154048
C      -3.35001842     -1.30536503     -3.19718118
O      -4.02591405     -1.51555070     -1.94952121
C      -3.21740222     -2.19217978     -0.97161321
C      -4.08820346     -2.62341126      0.21087829
O      -4.29316895     -1.58041993      1.17322941
C      -5.13297045     -0.52857848      0.69994583
C      -5.51002680      0.33957942      1.89615195
C      -6.41435722      1.49728090      1.48776916
C      -6.79903799      2.35008050      2.68563646
H       6.18323379     -0.08914698     -1.75608710
H       6.92118703     -1.70135314     -1.80585685
H       5.50061009     -1.42107714     -0.80083086
H       7.51820144     -1.49279836      0.62752970
H       8.32166461     -0.31100420     -0.39938076
H       7.56114565      0.80190847      1.62296247
H       6.68118031      1.43787378      0.25156736
H       5.61371649     -0.65213254      2.22813762
H       4.71657779     -0.03329574      0.83147079
H       3.52541744      2.00003924      3.44651912
H       3.20362280      0.51727171      2.53499814
H       3.78836503      3.27909651      1.27118210
H       2.13320980      2.73892565      1.60774318
H       1.11617916      1.52343652     -0.13418772
H       1.93386653      0.17092746      0.65558260
H       2.36255233      0.93005021     -2.29601405
H       3.09723441     -0.40740624     -1.44176875
H      -0.33243299      0.84112612     -1.74497564
H       0.32480700      0.41782363     -3.36339110
H      -1.99170040      0.10828037     -4.10018910
H      -2.52141552      0.54785972     -2.44593933
H      -2.99135904     -2.26653957     -3.58578797
H      -4.11238837     -0.92523413     -3.88685537
H      -2.77374790     -3.08387085     -1.43233382
H      -2.43262536     -1.51864995     -0.61335297
H      -5.05848800     -3.01191879     -0.12003241
H      -3.57031263     -3.42516953      0.74940951
H      -6.03704040     -0.94291797      0.23709294
H      -4.58884577      0.07395331     -0.03515689
H      -6.00710688     -0.28084786      2.65351477
H      -4.59544220      0.71831003      2.37141785
H      -5.90456965      2.12697676      0.74566006
H      -7.32437055      1.10807543      1.01405596
H      -7.44046165      3.17746846      2.36926794
H      -5.91227561      2.77555649      3.16851326
H      -7.34574958      1.75715667      3.42794243
