14
CN(C)C(N)=O
C      -0.45074494      1.33428196     -0.25338612
N      -0.22819571     -0.10143771     -0.15804036
C      -1.42120767     -0.92847159     -0.21442452
C       0.90195440     -0.66325298      0.39521673
N       1.98773253      0.14473302      0.47728232
O       0.98532006     -1.81672969      0.80277854
H      -0.98286015      1.66299294      0.64464382
H      -1.05999614      1.54381840     -1.13752989
H       0.47970576      1.89952132     -0.33145006
H      -2.02288860     -0.63799848     -1.08056664
H      -1.16694116     -1.98852029     -0.30549456
H      -1.99780384     -0.77885010      0.70345746
H       2.80001109     -0.36277761      0.80622439
H       2.17591436      0.69269080     -0.34871111
