53
CCCCc1nc(Cl)c(CO)n1Cc1ccc(-c2ccccc2-c2nn[nH]n2)cc1
C       6.64449558      0.48695003     -1.76584960
C       6.05754382      0.24004235     -0.38492836
C       4.89215802      1.17258344     -0.03576137
C       3.67069624      1.07243780     -0.95429217
C       3.02548236     -0.27653019     -0.91962946
N       3.26734787     -1.23438101     -1.79127859
C       2.49545797     -2.29950938     -1.41651424
Cl      2.51157513     -3.76818540     -2.27588346
C       1.76413844     -2.00225685     -0.28596671
C       0.80292013     -2.82488637      0.47940318
O       1.37733479     -3.03858122      1.76153601
N       2.09524174     -0.69243704      0.01287421
C       1.59290179      0.08712555      1.14102187
C       0.14184673      0.47332921      0.98571465
C      -0.76284949      0.20389609      2.02247201
C      -2.11591937      0.52419919      1.88827749
C      -2.59800033      1.12410380      0.71660993
C      -4.02971682      1.42183191      0.55790856
C      -4.44286408      2.76523093      0.68384857
C      -5.78681826      3.12644841      0.58612542
C      -6.74926744      2.15046178      0.36376429
C      -6.36506591      0.81543977      0.23202357
C      -5.01104817      0.43023929      0.31706525
C      -4.68513569     -0.98539107      0.14130039
N      -3.49586472     -1.44375067     -0.38082824
N      -3.56388327     -2.76669967     -0.40312497
N      -4.77570871     -3.04570635      0.08282440
N      -5.53052235     -1.99461488      0.43141610
C      -1.68483179      1.42945257     -0.30230296
C      -0.33025227      1.11214352     -0.16927331
H       7.53634266     -0.13138224     -1.91023052
H       5.93381425      0.22998623     -2.55659089
H       6.93592661      1.53488663     -1.88771566
H       6.84929241      0.38837914      0.35952790
H       5.74767395     -0.80757476     -0.30127076
H       4.59231386      0.96967953      0.99975787
H       5.25371758      2.20842549     -0.05434996
H       3.95660423      1.30435746     -1.98677462
H       2.94323093      1.84341066     -0.67571771
H       0.61862449     -3.79815653      0.01511255
H      -0.16290291     -2.32885948      0.59745203
H       2.16852072     -3.58630609      1.61476468
H       2.19370553      0.99305578      1.25661335
H       1.75990873     -0.51464569      2.04083420
H      -0.42793486     -0.28714120      2.93452291
H      -2.80023574      0.28252162      2.69917397
H      -3.70358907      3.54249531      0.87340160
H      -6.07891735      4.16828898      0.69029680
H      -7.79886252      2.42365164      0.29070721
H      -7.13516156      0.06626725      0.05244479
H      -5.10337686     -4.00262811      0.17804433
H      -2.03176280      1.89391407     -1.22339354
H       0.34167577      1.34438874     -0.99270398
