41
COc1cc(NC(=O)c2cc3ccccc3cc2O)c(OC)cc1Cl
C      -4.21162267     -0.66973557     -3.82405204
O      -4.91893360     -0.43919679     -2.61176746
C      -4.18332981     -0.17618868     -1.48472185
C      -2.78449151     -0.17862271     -1.43253507
C      -2.11410572      0.10301011     -0.23635461
N      -0.70447049      0.11504475     -0.11393445
C       0.24016147     -0.02913275     -1.10775080
O       0.02142376     -0.11495414     -2.31364778
C       1.66474868     -0.01771917     -0.66425993
C       2.03712969     -0.45459028      0.61653300
C       3.38174882     -0.41958098      1.02783922
C       3.76525243     -0.84607620      2.30993370
C       5.10296834     -0.80275592      2.70644046
C       6.07471081     -0.33471755      1.82721989
C       5.71193898      0.08908276      0.54817781
C       4.37131433      0.05164391      0.13367909
C       3.99585082      0.46255909     -1.15323521
C       2.66057976      0.41532346     -1.54964620
O       2.39863092      0.81269834     -2.83500381
C      -2.85104025      0.38174635      0.93414121
O      -2.09768583      0.63450041      2.05823491
C      -2.80310266      0.97133977      3.24811307
C      -4.24460082      0.38182452      0.88906893
C      -4.90284190      0.10546485     -0.31354966
Cl     -6.63428923      0.12167441     -0.30256450
H      -3.60743399      0.20024459     -4.10172609
H      -4.95016130     -0.82733387     -4.61599349
H      -3.59931899     -1.57485292     -3.75641325
H      -2.21254644     -0.40791191     -2.32200570
H      -0.39373607      0.34736823      0.82441784
H       1.29221408     -0.85207110      1.30115452
H       3.02384181     -1.21681648      3.01444555
H       5.38605242     -1.13550780      3.70188280
H       7.11693273     -0.30128028      2.13443832
H       6.48652543      0.44775218     -0.12668798
H       4.74173014      0.81491923     -1.86218798
H       1.46948520      0.56427991     -3.04204853
H      -3.39085370      1.88534536      3.11373941
H      -2.06292324      1.16373127      4.03073270
H      -3.43147279      0.13914290      3.58174373
H      -4.84427965      0.59034869      1.76815026
