16
c1ccc2cnncc2c1
C      -1.88549702     -0.99851240     -0.12451875
C      -2.10313506      0.37612414     -0.05461933
C      -1.01965211      1.25197334      0.03401543
C       0.29654858      0.75544894      0.05342732
C       1.41806729      1.57575486      0.14030065
N       2.68453615      1.10475901      0.15935994
N       2.89647718     -0.23389531      0.09129197
C       1.83661992     -1.06789203      0.00587640
C       0.51569344     -0.62870578     -0.01695286
C      -0.58360860     -1.50214685     -0.10602352
H      -2.73060517     -1.67935739     -0.19353514
H      -3.11788406      0.76675749     -0.06914380
H      -1.20728821      2.32223581      0.08777946
H       1.33752672      2.65566734      0.19848772
H       2.09367068     -2.12026281     -0.04436348
H      -0.43146972     -2.57794837     -0.16138202
