35
Cc1cc(Cc2ccc(N)c(C)c2)ccc1N
C       3.38378063     -1.90305869     -1.08731816
C       2.90532409     -0.66320670     -0.38338882
C       1.76113161     -0.00365199     -0.86820733
C       1.28901978      1.17330064     -0.27010666
C       0.06429600      1.87651750     -0.81051061
C      -1.21205425      1.07347497     -0.69860825
C      -1.91097080      0.68304831     -1.84352832
C      -3.09288786     -0.05322403     -1.73204056
C      -3.58466675     -0.45102508     -0.48301351
N      -4.83048553     -1.09624902     -0.42079101
C      -2.92803303     -0.00455495      0.67660810
C      -3.45932384     -0.31048599      2.04985144
C      -1.73591148      0.73274454      0.55647844
C       1.99224153      1.70035825      0.81596211
C       3.12658846      1.04844122      1.30560611
C       3.56360578     -0.16117706      0.75236587
N       4.76825184     -0.71863869      1.21099124
H       4.42554756     -1.78535207     -1.40272302
H       3.29773396     -2.77041553     -0.42499933
H       2.79292866     -2.11079262     -1.98582457
H       1.23299786     -0.40860187     -1.72995566
H      -0.08938665      2.83222724     -0.29225885
H       0.25985481      2.14225606     -1.85775217
H      -1.54998776      0.95595890     -2.83209099
H      -3.63064075     -0.31917244     -2.63838905
H      -4.96615512     -1.63967862      0.42462829
H      -5.05002585     -1.63123365     -1.25478503
H      -2.85952042      0.16879195      2.83098733
H      -4.48460225      0.05913216      2.15388384
H      -3.43931820     -1.38994499      2.23076733
H      -1.21042757      1.05331408      1.45457699
H       1.67203191      2.62737979      1.28518734
H       3.67025660      1.49595809      2.13357886
H       4.85173113     -1.71316667      1.03099254
H       4.97707589     -0.48927303      2.17731440
