25
CCCC(=O)n1ncc2c(=O)[nH]cnc21
C       4.54084350      0.30832821      0.07076030
C       3.30130539     -0.37000854      0.63103156
C       2.02098786      0.25078119      0.07215234
C       0.78534358     -0.42459422      0.62994609
O       0.78974386     -1.35357500      1.42974816
N      -0.42849670      0.10708976      0.14905075
N      -0.42311444      1.15212737     -0.75047824
C      -1.71385713      1.40227635     -0.99048631
C      -2.55454042      0.55296422     -0.27540986
C      -3.97589250      0.39711048     -0.16840207
O      -4.79313624      1.08013972     -0.77201822
N      -4.33411452     -0.61685475      0.69764245
C      -3.41479074     -1.38899574      1.37991771
N      -2.12698371     -1.26297592      1.29603864
C      -1.73013687     -0.27327286      0.45162118
H       4.58025727      0.21505879     -1.01922101
H       4.55455382      1.37282510      0.32565285
H       5.44405662     -0.15149630      0.48387338
H       3.30887186     -0.29083965      1.72478515
H       3.33436610     -1.43944423      0.39053987
H       2.02018339      0.14891274     -1.01935676
H       1.99430588      1.31474500      0.33490518
H      -1.98103289      2.19544643     -1.67840157
H      -5.32394752     -0.77368659      0.81373778
H      -3.87477544     -2.15206154      2.02802471
