29
CCn1cc(C(=O)O)c(=O)c2ccc(C)nc21
C      -1.62235854     -2.58760589      0.65727783
C      -1.13989284     -1.46516398      1.56541815
N       0.01647947     -0.77539479      0.98106378
C       1.32563145     -1.15088883      1.22646634
C       2.41654645     -0.58388535      0.69095485
C       3.75451170     -1.09364463      1.05515308
O       3.93130093     -2.02493039      1.82727289
O       4.78123277     -0.44564056      0.46332334
C       2.18959598      0.53483495     -0.24839975
O       3.14844524      1.10684545     -0.76522158
C       0.79911882      0.93482946     -0.54881277
C       0.54427421      1.97057231     -1.44923585
C      -0.77286640      2.31991849     -1.71783814
C      -1.78885680      1.62126124     -1.07720292
C      -3.22357698      1.96843897     -1.34240348
N      -1.54685848      0.61463506     -0.20059654
C      -0.26442204      0.26758003      0.06865668
H      -0.82500395     -3.31550712      0.47385538
H      -1.95490942     -2.20488539     -0.31279262
H      -2.46300507     -3.11364230      1.12035877
H      -0.85638861     -1.89634450      2.53430708
H      -1.96081811     -0.77270072      1.78854129
H       1.41633534     -1.98281465      1.92399093
H       4.50239434      0.28851607     -0.13700122
H       1.36010200      2.49817677     -1.93670247
H      -0.99880814      3.12137476     -2.41444774
H      -3.41936439      3.00763216     -1.06054241
H      -3.45545347      1.83279874     -2.40332200
H      -3.89338544      1.32563466     -0.76212090
