17
O=S(=O)([O-])[O-].[NH3+]O.[NH3+]O
O      -0.22870598     -1.00665715     -1.05247696
S      -0.00000066     -0.00000023     -0.00000087
O      -0.14564098     -0.63160946      1.32409469
O       1.36068202      0.55119434     -0.13453909
O      -0.98633440      1.08707250     -0.13707777
N      -0.36610713     -0.03192745      0.04093842
O       1.02270650     -0.16403016      0.39654758
N      -0.36823518     -0.00848583     -0.03262447
O       0.99647707     -0.35123043     -0.33727482
H      -0.60012139     -0.55203036     -0.81937902
H      -0.64803511      0.95450161     -0.07260083
H      -0.95493112     -0.42437665      0.79488409
H       1.54648825      0.21786301     -0.34039024
H      -0.62983087     -0.26699330      0.93181951
H      -0.56062306      0.99512797     -0.17807591
H      -1.00378926     -0.52716504     -0.66207285
H       1.56600130      0.15874662      0.27822854
