22
Brc1cc(Br)c(-c2ccccc2)c(Br)c1
Br      5.39241757      0.61084756     -0.30801999
C       3.51735295      0.39843724     -0.20091352
C       2.79534331      0.05895017     -1.33913238
C       1.40645332     -0.09813847     -1.25867968
Br      0.50815249     -0.56413121     -2.87442495
C       0.71444874      0.08092639     -0.04080904
C      -0.74646223     -0.08455896      0.04263839
C      -1.31072901     -1.33563148      0.33900827
C      -2.69611331     -1.49192512      0.41800022
C      -3.53460765     -0.40038586      0.20189818
C      -2.99034339      0.84778563     -0.09318691
C      -1.60511657      1.00533231     -0.17245319
C       1.48153307      0.42527291      1.09371760
Br      0.68945059      0.69977531      2.80602050
C       2.87049454      0.58285762      1.01549688
H       3.30884011     -0.08358467     -2.28706883
H      -0.67034820     -2.19825366      0.51049981
H      -3.11995967     -2.46589255      0.64823280
H      -4.61288694     -0.52252798      0.26348857
H      -3.64380573      1.69972114     -0.26188348
H      -1.19663445      1.98676428     -0.40385673
H       3.44252046      0.84835940      1.90142747
