36
CC(C)(C)c1nnc(NS(=O)(=O)c2ccc(N)cc2)s1
C      -4.25218920      0.18354831      1.70722007
C      -4.24938836      0.07959085      0.17096786
C      -4.59332692      1.44893429     -0.44309056
C      -5.35372156     -0.91809249     -0.24032473
C      -2.89872673     -0.40978100     -0.33165314
N      -2.71252729     -1.51360063     -1.03350067
N      -1.38685753     -1.72473806     -1.35263415
C      -0.61481345     -0.79501290     -0.84815711
N       0.81223995     -0.80830843     -1.12797875
S       1.68040348     -1.39755697      0.19875139
O       1.07645234     -0.98219358      1.44534561
O       1.97508711     -2.78531342     -0.08571219
C       3.18967123     -0.47483253      0.02359052
C       3.21334593      0.86915169      0.40243511
C       4.39779021      1.59824911      0.27106057
C       5.56842034      0.98498404     -0.18749084
N       6.71373772      1.75052752     -0.43060063
C       5.51334907     -0.34906432     -0.60552930
C       4.33588047     -1.09133632     -0.47991461
S      -1.43333983      0.46283533     -0.04089059
H      -3.98083275     -0.77245356      2.17051222
H      -5.24265317      0.46696224      2.08176725
H      -3.54286203      0.93690868      2.06781354
H      -5.59483520      1.77656369     -0.14101134
H      -3.88968081      2.22732263     -0.12729228
H      -4.57091777      1.40989460     -1.53861146
H      -6.33809650     -0.58855863      0.11182331
H      -5.16917269     -1.91430541      0.17920622
H      -5.41148633     -1.02414451     -1.33023686
H       0.95075824     -1.47909384     -1.88660635
H       2.31977101      1.35522988      0.78700718
H       4.40123606      2.65296193      0.53496820
H       7.57379386      1.21115455     -0.45436130
H       6.79399872      2.57287473      0.15965457
H       6.39416679     -0.82442124     -1.03050160
H       4.32532562     -2.13488620     -0.78558705
