47
CC(=O)Nc1nc(-c2cc3c(s2)-c2ncccc2OCC3)c(-c2ccccc2Cl)[nH]1
C       6.15782827      3.98463740      0.25287633
C       5.37717376      2.69699671      0.21619152
O       5.94330440      1.60473542      0.20465933
N       4.01454133      2.87692872      0.20652827
C       3.13341001      1.83018855      0.16701887
N       1.83144446      1.95856635      0.16747238
C       1.32796277      0.67386395      0.10967997
C      -0.21881295      0.40316783      0.06299663
C      -0.83004715     -0.82116537     -0.04769425
C      -2.26638781     -0.73356446     -0.06938735
C      -2.71153685      0.58068902      0.03976840
S      -1.36331753      1.65822177      0.13512554
C      -4.09247228      1.12523167      0.08042105
N      -4.15920053      2.48628304      0.11712783
C      -5.36885070      3.07402103      0.22740374
C      -6.55335338      2.37272378      0.30998023
C      -6.48848009      0.98695649      0.26132508
C      -5.25387336      0.34362690      0.12165972
O      -5.34737073     -1.02026287      0.08867247
C      -4.47282000     -1.65001417     -0.84755265
C      -3.13527616     -1.94911020     -0.19364765
C       2.35733009     -0.25506591      0.09944387
C       2.41319682     -1.70986787      0.09437114
C       2.19595826     -2.39135887      1.30219574
C       2.24250668     -3.78612846      1.35105175
C       2.50952353     -4.51574247      0.19480546
C       2.73073949     -3.85158501     -1.01205164
C       2.68464644     -2.45473985     -1.06512026
Cl      2.96197803     -1.69851401     -2.59542554
N       3.49775201      0.51335679      0.12172976
H       6.71789122      4.03519324      1.19044766
H       6.85003509      4.00579764     -0.59328412
H       5.50557640      4.85982004      0.18727247
H       3.58956046      3.79426358      0.22872647
H      -0.29854430     -1.75932552     -0.12410335
H      -5.35349725      4.15976330      0.25531934
H      -7.50137475      2.88841473      0.40835216
H      -7.40083498      0.39945337      0.32243292
H      -4.95082382     -2.59920626     -1.11558115
H      -4.38235661     -1.07230262     -1.77749303
H      -2.61008265     -2.69872859     -0.79819932
H      -3.28633062     -2.37187757      0.80714164
H       1.98550748     -1.83487977      2.21429902
H       2.07163304     -4.30148364      2.29349147
H       2.54778965     -5.60185714      0.23276979
H       2.93983269     -4.42808571     -1.90990487
H       4.45852215      0.19196498      0.11465029
