22
Clc1ccc(-c2ccc(Cl)c(Cl)c2Cl)cc1
Cl     -5.14356476     -0.86397768      0.69397412
C      -3.46318179     -0.58167300      0.45824125
C      -2.79472948      0.33376117      1.26747496
C      -1.42903416      0.56176101      1.07653374
C      -0.72185968     -0.12165409      0.07414370
C       0.71612597      0.11292824     -0.12136332
C       1.62549015     -0.68399945      0.59453880
C       3.00077621     -0.50794368      0.45044814
C       3.49535169      0.47019446     -0.41387161
Cl      5.21575341      0.61769762     -0.52952829
C       2.61421019      1.28242596     -1.14311333
Cl      3.24172616      2.49780110     -2.21694453
C       1.22409421      1.10207220     -0.99533376
Cl      0.10721142      2.09732295     -1.88920570
C      -1.41294611     -1.04241902     -0.72992452
C      -2.77863473     -1.27104775     -0.53969116
H      -3.32827710      0.87430047      2.04478154
H      -0.91958110      1.28295033      1.71296083
H       1.25893134     -1.45314404      1.27437933
H       3.68257440     -1.13910402      1.01709467
H      -0.89082201     -1.58458011     -1.51614592
H      -3.29961422     -1.98367268     -1.17356776
