19
C[N+]1([O-])CCOCC1
C       2.00728335      0.70231539     -0.32530584
N       0.70989670      0.21375836      0.25425738
O       0.85186188      0.13353143      1.61678429
C      -0.40292025      1.17820493     -0.10438950
C      -1.75453543      0.62562619      0.32649999
O      -1.99787238     -0.63994005     -0.30642235
C      -1.01190235     -1.59324190      0.11847628
C       0.37543270     -1.14738941     -0.32242056
H       2.78279773     -0.01632513     -0.04651092
H       1.89888749      0.76779408     -1.41073777
H       2.21419613      1.68256150      0.11275530
H      -0.35990404      1.29715875     -1.19291059
H      -0.17445368      2.12750006      0.39068530
H      -1.82543128      0.50932581      1.41406317
H      -2.55036380      1.30812282      0.01251773
H      -1.25862540     -2.55137871     -0.34931764
H      -1.07719442     -1.72629582      1.20446863
H       0.41994649     -1.03290889     -1.41136193
H       1.15290056     -1.83841941      0.01886903
