14
CCCO[N+](=O)[O-]
C      -2.06114919      0.18535807      0.28819671
C      -0.83168691     -0.65114229     -0.01777174
C       0.39617369      0.21651270     -0.27901204
O       1.49198135     -0.65163416     -0.55490903
N       2.69178654      0.05311102     -0.81390557
O       3.63986632     -0.69248977     -1.05246436
O       2.64552203      1.28360037     -0.77118539
H      -2.92456108     -0.46192375      0.47092968
H      -2.30385455      0.84691001     -0.54948755
H      -1.90430809      0.80191883      1.17899738
H      -1.02306155     -1.28896983     -0.88913281
H      -0.62878272     -1.33336690      0.81656520
H       0.20381039      0.86882993     -1.13976344
H       0.60826377      0.82328575      0.60995282
