24
CCCOC(=O)c1ccccc1
C      -4.43730421     -0.24233468     -0.13127199
C      -2.98878261      0.03409331     -0.49127244
C      -2.03947646     -0.36146261      0.63296034
O      -0.70223686     -0.06680277      0.20754970
C       0.25251968     -0.37268205      1.12145437
O       0.05451129     -0.85731051      2.22459528
C       1.60556207     -0.03618525      0.60050279
C       2.71262502     -0.29002864      1.42224591
C       4.00269459      0.00817364      0.97891023
C       4.19420180      0.56108628     -0.28649748
C       3.09860552      0.81689837     -1.11056922
C       1.80614547      0.51992965     -0.67062592
H      -4.73484790      0.32180016      0.75839842
H      -4.59563276     -1.30702762      0.06786616
H      -5.09560958      0.05064469     -0.95506798
H      -2.72198997     -0.50919773     -1.40575293
H      -2.85932126      1.09782476     -0.72436783
H      -2.12884704     -1.43395375      0.84223288
H      -2.26939601      0.21060327      1.53954550
H       2.57362245     -0.72153008      2.41189343
H       4.85687744     -0.19126054      1.62137286
H       5.19915409      0.79306520     -0.63110061
H       3.25036173      1.24818688     -2.09714541
H       0.96656354      0.72747001     -1.32926706
