23
Cc1ccc(P(=O)(O)O)c(C)c1
C       3.58635352     -0.27843908     -0.19716907
C       2.09998762     -0.29101003      0.00299315
C       1.40903740     -1.49881470      0.10646397
C       0.02213295     -1.50466914      0.26612123
C      -0.71370682     -0.30853909      0.31616684
P      -2.45910333     -0.36582442      0.52817259
O      -3.17545234      0.60724541      1.41034228
O      -3.11265227     -0.33240637     -0.93953145
O      -2.87510359     -1.86079703      0.95140884
C      -0.02032153      0.91186184      0.18050803
C      -0.74930233      2.22692776      0.22203036
C       1.37765517      0.90744034      0.03012663
H       4.03345349      0.61315876      0.25491617
H       3.82003293     -0.28898529     -1.26619500
H       4.05223433     -1.14962326      0.27533311
H       1.94348123     -2.44521813      0.06626108
H      -0.49531876     -2.45893638      0.35046737
H      -4.06687344     -0.14431435     -0.90802801
H      -3.78934656     -1.89546557      1.28461260
H      -1.08946018      2.43692903      1.24053063
H      -0.10203954      3.05217840     -0.09382321
H      -1.60649707      2.21546111     -0.45836582
H       1.91080911      1.85184019     -0.06845879
