58
CCCCCCCCCCCCCCCCCOS(=O)(=O)[O-].[Na+]
C      -8.76129773      0.87646387     -1.44590911
C      -8.37668832      1.16960401     -0.00397105
C      -6.86498013      1.20495802      0.23030288
C      -6.18676534     -0.15061368      0.01921389
C      -4.69736921     -0.08549152      0.36895987
C      -4.01764177     -1.43913406      0.15058973
C      -2.54988091     -1.46020950      0.58992399
C      -1.65659327     -0.53607685     -0.24199800
C      -0.16042791     -0.72678893      0.03331092
C       0.25338257     -0.30888357      1.44694853
C       1.74740750     -0.50493342      1.72581856
C       2.64855026      0.42705137      0.91117260
C       4.11679189      0.26470931      1.31367402
C       5.05459667      1.24457809      0.60211183
C       5.08973178      1.14037306     -0.92602818
C       5.44337588     -0.24198026     -1.48730604
C       6.79817407     -0.77903537     -1.03251754
O       7.81319610      0.13398935     -1.40132907
S       9.30787696     -0.12900656     -0.80301383
O      10.12296648      0.87816265     -1.47367763
O       9.14331112      0.07624736      0.63343798
O       9.60064997     -1.50667463     -1.18956768
Na      0.00000000      0.00000000      0.00000000
H      -9.84580839      0.96080031     -1.56949593
H      -8.47319360     -0.13688427     -1.74019052
H      -8.28629205      1.58524396     -2.13148258
H      -8.83939783      0.42609486      0.65538698
H      -8.79389193      2.14431843      0.27597249
H      -6.40841294      1.95403536     -0.42813985
H      -6.68609446      1.53875653      1.25999630
H      -6.29575580     -0.46689591     -1.02425159
H      -6.67754372     -0.90778464      0.64249263
H      -4.57882642      0.22056654      1.41534462
H      -4.21771215      0.68020243     -0.25097544
H      -4.55568427     -2.20666796      0.72080947
H      -4.08933571     -1.72375421     -0.90624386
H      -2.49095124     -1.19020770      1.65027841
H      -2.18212557     -2.48995029      0.50241938
H      -1.92312403      0.51149428     -0.06141487
H      -1.83411632     -0.73083110     -1.30691383
H       0.38893763     -0.12860852     -0.70214097
H       0.11502288     -1.77399224     -0.14019272
H      -0.30018505     -0.90483315      2.18121087
H      -0.01859836      0.73944935      1.61911289
H       2.02380898     -1.54899800      1.53459776
H       1.91989810     -0.32343192      2.79408073
H       2.53588792      0.20670663     -0.15471105
H       2.33817860      1.46713548      1.06650119
H       4.21213765      0.43072540      2.39420305
H       4.43991762     -0.76661293      1.13192769
H       6.06795712      1.10779650      0.99812141
H       4.76461516      2.26861951      0.86964359
H       5.81067217      1.87664646     -1.30311455
H       4.11830389      1.44368158     -1.33434816
H       5.45153914     -0.15811642     -2.58151417
H       4.66093059     -0.96542424     -1.23339182
H       6.79843944     -0.94558157      0.04971058
H       6.98243626     -1.74100727     -1.52357690
