17
COc1cc(Cl)c(Cl)cc1O
C      -2.69009681      0.29946330     -0.11904345
O      -1.67186440     -0.69277053     -0.19708337
C      -0.37837775     -0.26178281     -0.05931067
C       0.03500213      1.05274533      0.14954169
C       1.40158582      1.34617744      0.27242336
Cl      1.84058901      2.99954264      0.53026825
C       2.35776065      0.32461166      0.18656423
Cl      4.05245797      0.62789835      0.33046243
C       1.94761720     -0.99140434     -0.02230311
C       0.59101844     -1.26819369     -0.14225596
O       0.21630972     -2.56813172     -0.34675007
H      -2.58632100      1.03443752     -0.92401625
H      -3.65450457     -0.20140752     -0.24690844
H      -2.69324786      0.78417604      0.86278217
H      -0.67871164      1.86681819      0.22084905
H       2.67028564     -1.79926106     -0.09220399
H      -0.75950254     -2.55291881     -0.40301586
