44
CN1C2CCC1CC(OC(=O)C(CO)c1ccccc1)C2
C      -5.13728922      0.39864438      1.01242003
N      -3.71387850      0.20873090      0.74144755
C      -3.03405866      1.45793784      0.35369228
C      -3.39290306      1.64475794     -1.12465442
C      -3.67731636      0.22946897     -1.63501000
C      -3.46455396     -0.67216198     -0.41380976
C      -2.00376546     -1.14100065     -0.28876483
C      -1.01354558      0.03505871     -0.29220594
O       0.26307490     -0.37204705      0.23587954
C       1.08199795     -1.05314819     -0.61578641
O       0.80418992     -1.34200646     -1.77405178
C       2.39825942     -1.38013743      0.06684990
C       3.00250345     -2.64037797     -0.56613930
O       3.89979746     -3.27069107      0.35114716
C       3.36652767     -0.20626956      0.03730826
C       4.03268027      0.17587091      1.21164402
C       4.92878350      1.24614072      1.20562923
C       5.17455171      1.94459381      0.02581239
C       4.52814354      1.57089848     -1.15017444
C       3.63197099      0.50032249     -1.14718755
C      -1.52953760      1.20675307      0.55741875
H      -5.26951647      1.06711131      1.87028590
H      -5.69806139      0.81512124      0.16941313
H      -5.59743443     -0.55728011      1.28581541
H      -3.33853102      2.31582613      0.96361343
H      -2.59661884      2.13289353     -1.69596072
H      -4.29584094      2.25808795     -1.22870311
H      -4.71507235      0.16936630     -1.98390940
H      -3.03119699     -0.03840149     -2.47739472
H      -4.12068033     -1.54964580     -0.42971675
H      -1.87724368     -1.72705630      0.63173778
H      -1.76267830     -1.82672790     -1.10999460
H      -0.87241502      0.39990994     -1.31807386
H       2.15792771     -1.62021411      1.11237100
H       2.22387516     -3.37462091     -0.80102728
H       3.54881033     -2.41697819     -1.48927871
H       4.33982660     -3.99079861     -0.13318871
H       3.86237654     -0.36496338      2.14066275
H       5.43778765      1.53118596      2.12261679
H       5.87325599      2.77680515      0.02222984
H       4.72352544      2.11203315     -2.07232211
H       3.14514457      0.22474498     -2.08110063
H      -0.95712302      2.10940593      0.30899525
H      -1.32574959      1.01285735      1.61955870
