15
Cc1ccccc1Cl
C       2.20385792     -0.18557381     -0.01002476
C       0.70608966     -0.06690157     -0.00287843
C      -0.07973596     -1.22896820      0.05563736
C      -1.47401331     -1.14879923      0.06364437
C      -2.10268879      0.09270739      0.01333650
C      -1.33638861      1.25600765     -0.04507068
C       0.05944377      1.17807027     -0.05319031
Cl      0.95033951      2.65692810     -0.12674844
H       2.52335513     -1.23235395      0.03413327
H       2.61670535      0.24422092     -0.92830819
H       2.63156872      0.32416729      0.85924968
H       0.39067416     -2.20948661      0.09558663
H      -2.06909367     -2.05779330      0.10925298
H      -3.18779031      0.15533398      0.01955682
H      -1.83232358      2.22244108     -0.08417681
