15
ClCc1ccc(Cl)cc1Cl
Cl      3.09252392     -0.23244743     -1.04977464
C       2.18863180      0.27961120      0.38982199
C       0.70957424      0.11150549      0.16784851
C       0.10836218     -1.11805617      0.49628902
C      -1.25711663     -1.32474445      0.28975165
C      -2.03529406     -0.30707297     -0.25377602
Cl     -3.71759868     -0.56216648     -0.50729598
C      -1.46143094      0.91359039     -0.59588063
C      -0.09428962      1.12037653     -0.38954826
Cl      0.55441374      2.65579402     -0.84482671
H       2.52350361     -0.33718829      1.23097603
H       2.46187579      1.31044016      0.63235981
H       0.70604106     -1.92915780      0.91027857
H      -1.70396261     -2.28138436      0.54951517
H      -2.07523379      1.70090015     -1.02573850
