36
O=Cc1ccccc1O[C@@H]1O[C@H](CO)[C@@H](O)[C@H](O)[C@H]1O
O       4.18369192     -1.45252268     -3.00564090
C       3.28693471     -1.29560794     -2.18311012
C       3.35016774     -0.23163556     -1.15882508
C       4.44577302      0.64078307     -1.14572086
C       4.52569848      1.64784819     -0.18317714
C       3.51846717      1.77945722      0.77204220
C       2.42469506      0.91127716      0.76174054
C       2.32661687     -0.08372174     -0.21636148
O       1.27909516     -0.96489833     -0.21952214
C      -0.00551545     -0.32229845     -0.32855246
O      -0.58666285     -0.20400787      0.97673683
C      -1.88970969      0.38465898      0.96122090
C      -2.36298402      0.51147013      2.41649359
O      -3.67947765      1.05337091      2.47970713
C      -2.86921036     -0.45972709      0.12720350
O      -4.15320680      0.16047150     -0.01075391
C      -2.30448389     -0.65927179     -1.27878422
O      -3.13754894     -1.56468373     -2.02105440
C      -0.88144655     -1.20863355     -1.23569746
O      -0.36510992     -1.25190181     -2.57611668
H       2.39986287     -1.94962116     -2.17983498
H       5.23949402      0.53410370     -1.88282053
H       5.37945685      2.32132610     -0.17328187
H       3.59110983      2.55259820      1.53331736
H       1.66467889      1.00574609      1.53254198
H       0.09698696      0.67393925     -0.78419145
H      -1.83196699      1.39705987      0.53889009
H      -1.68246761      1.16309584      2.97576908
H      -2.36046239     -0.46631390      2.91102809
H      -3.87692821      1.19365711      3.42520164
H      -3.02983471     -1.43894269      0.59491180
H      -4.37845540      0.53496110      0.87062656
H      -2.32814980      0.28479086     -1.83816699
H      -4.05123141     -1.24386294     -1.87278706
H      -0.88352398     -2.24232225     -0.86819175
H      -1.05435295     -1.71064180     -3.09874180
