37
CCN(CC)C(=O)C(C)OC(=O)c1ccccc1
C      -3.90485576      1.13650951      1.89881029
C      -3.15590040     -0.12071154      1.48600215
N      -2.40877541      0.08491462      0.24431218
C      -3.07686742     -0.30097074     -0.99944544
C      -2.87775989     -1.77463868     -1.31889499
C      -1.09247493      0.53670349      0.34220759
O      -0.57634384      0.78438648      1.43768000
C      -0.29231411      0.77388600     -0.95761091
C      -0.57663696      2.18342831     -1.46504639
O       1.12162774      0.69657956     -0.71854634
C       1.58387222     -0.56193447     -0.51377600
O       0.93016118     -1.58710350     -0.63025975
C       3.02825131     -0.53960960     -0.15962781
C       3.71114601     -1.76146401     -0.08569857
C       5.06803240     -1.79104932      0.24242834
C       5.74843191     -0.60189480      0.50119606
C       5.07486384      0.61755012      0.43521841
C       3.71738791      0.65143182      0.10673321
H      -3.21514354      1.97116879      2.06150386
H      -4.45741176      0.96277016      2.82718252
H      -4.61914002      1.44023295      1.12664912
H      -3.85673966     -0.95178798      1.35095721
H      -2.46839768     -0.41187547      2.28797476
H      -4.14520885     -0.07604763     -0.90389586
H      -2.70573254      0.30284321     -1.83039454
H      -3.28690895     -2.41021750     -0.52712687
H      -1.81651462     -2.01925253     -1.42431328
H      -3.38247400     -2.03104615     -2.25540768
H      -0.55746077      0.04952978     -1.73307706
H      -1.64046722      2.34604451     -1.65946409
H      -0.24946285      2.93264335     -0.73465710
H      -0.01764711      2.37694312     -2.38687679
H       3.18724690     -2.69503191     -0.28176029
H       5.59204711     -2.74190900      0.29906228
H       6.80434382     -0.62566467      0.75966536
H       5.60525653      1.54336136      0.64444079
H       3.20796943      1.61128237      0.07135964
