23
O=S1(=O)c2ccccc2-c2ccccc21
O      -0.16785555      1.97272219     -2.25738296
S       0.19326852      0.60894778     -1.93648851
O       0.68286769     -0.35004442     -2.90286927
C       1.28786958      0.62697492     -0.55876188
C       2.58599591      1.10323360     -0.56182433
C       3.28638867      1.02596856      0.63929568
C       2.67880491      0.48466987      1.78644415
C       1.35852429      0.00984019      1.75508326
C       0.64436852      0.07854226      0.56665742
C      -0.73036764     -0.34942567      0.29487499
C      -1.64951428     -0.92660260      1.16039877
C      -2.92482781     -1.25982331      0.67860915
C      -3.28433421     -1.01958109     -0.65973144
C      -2.37593618     -0.44145277     -1.54279051
C      -1.12866258     -0.12531133     -1.03650651
H       3.03605085      1.51705673     -1.45789240
H       4.31164289      1.38654103      0.69310274
H       3.24446150      0.43373238      2.71523951
H       0.91741226     -0.40253834      2.65760065
H      -1.40214851     -1.12460632      2.19904153
H      -3.65040883     -1.71272308      1.35213526
H      -4.28044446     -1.28832804     -1.00555228
H      -2.63315554     -0.24779254     -2.57868301
