37
CCC(=O)/C=C/C1C(C)=CCCC1(C)C
C       5.06407926     -0.45536039     -0.61912942
C       3.55445441     -0.30092807     -0.53570034
C       3.11510211      0.37581706      0.75049420
O       3.90889413      0.74815665      1.61390965
C       1.66283079      0.60635815      0.99497915
C       0.67542445      0.25602320      0.15582711
C      -0.79432965      0.51617510      0.44043446
C      -1.34182898      1.42930562     -0.65242714
C      -0.96890534      2.88467707     -0.55926665
C      -2.13219057      0.97181008     -1.64177546
C      -2.57204905     -0.45552042     -1.78147155
C      -1.88937856     -1.42082506     -0.80861998
C      -1.63796908     -0.80257279      0.58741456
C      -2.98972808     -0.48269481      1.27333656
C      -0.92385048     -1.84404474      1.47611383
H       5.34553351     -0.94546341     -1.55624612
H       5.56196197      0.51917202     -0.57967657
H       5.44407475     -1.06019652      0.21089308
H       3.09268000     -1.29274029     -0.58622900
H       3.21157782      0.30079715     -1.38410606
H       1.44990327      1.09881998      1.93963664
H       0.89444116     -0.23177657     -0.79031229
H      -0.87717540      1.05469823      1.39587754
H      -1.29414104      3.29824669      0.40085146
H       0.11436984      3.01366858     -0.64592681
H      -1.43673260      3.47998175     -1.35061757
H      -2.51282975      1.66009637     -2.39385305
H      -3.65790875     -0.49381135     -1.63236386
H      -2.38601660     -0.79279904     -2.80775155
H      -0.93476273     -1.74112676     -1.24665982
H      -2.49746878     -2.33064494     -0.72342768
H      -3.56737291      0.27739185      0.73898850
H      -2.83039722     -0.11080112      2.29217534
H      -3.61535319     -1.37996661      1.34379567
H      -0.66833517     -1.41937292      2.45342138
H      -0.00193523     -2.21422300      1.01510363
H      -1.56466835     -2.71632672      1.65044283
