24
C1CCCCCCC1
C      -0.89083410     -1.26455086     -0.72062830
C      -1.73636370     -0.37140561      0.18747042
C      -1.56146077      1.12960311     -0.05459522
C      -0.21380090      1.74044604      0.33642698
C       0.96044659      1.30324479     -0.53951255
C       1.87319952      0.24212048      0.07506375
C       1.21176660     -0.92961925      0.79370424
C       0.36209294     -1.85384087     -0.07277174
H      -1.51193326     -2.11549305     -1.03230737
H      -0.63663173     -0.75112316     -1.65310460
H      -2.79057430     -0.59862004     -0.02133085
H      -1.58856168     -0.61380540      1.24540724
H      -1.77276773      1.35620383     -1.10737983
H      -2.33725005      1.64810698      0.52397875
H      -0.32046021      2.82751962      0.22032705
H      -0.00810403      1.57834811      1.40002771
H       0.61799943      0.98909751     -1.53036085
H       1.58830948      2.18465983     -0.72900158
H       2.54077474     -0.14046080     -0.70708292
H       2.52491397      0.74340463      0.80319013
H       2.01669732     -1.54035470      1.22486378
H       0.63719816     -0.57618532      1.65580667
H       0.04685685     -2.69375381      0.56075636
H       0.98848687     -2.29354205     -0.85894726
