14
CC(=O)CC(N)=O
C      -1.79863226     -0.91407017     -0.16376319
C      -0.83221505     -0.57661350      0.94099472
O      -0.70056865     -1.31179381      1.92181948
C      -0.01193255      0.67656460      0.80167449
C       1.01771613      0.57579715     -0.28596900
N       2.31738562      0.67984738      0.11343224
O       0.73298518      0.42172404     -1.46830171
H      -2.52413030     -1.64769884      0.19918307
H      -1.25912939     -1.33543067     -1.01451424
H      -2.34337775     -0.01682486     -0.46829932
H      -0.67459200      1.52150976      0.58710770
H       0.46460085      0.88936970      1.76532109
H       3.01985457      0.51983884     -0.59878253
H       2.59203561      0.51778037      1.07400432
