30
COc1ccc(C(=O)c2csc(S(N)(=O)=O)c2)cc1
C      -5.99702965     -0.32541858      0.26939807
O      -4.97824540      0.65377411      0.43202136
C      -3.68539605      0.20947111      0.42876257
C      -3.27235289     -1.11415448      0.27008743
C      -1.90933933     -1.43088910      0.28573698
C      -0.95190415     -0.42255190      0.44576442
C       0.48226594     -0.80546035      0.47436014
O       0.80351438     -1.81119414      1.10248314
C       1.47894250      0.00035299     -0.23687652
C       1.22796018      0.86502129     -1.28795982
S       2.64209008      1.62784588     -1.87935503
C       3.63303575      0.78763657     -0.77334657
S       5.36402650      1.13129400     -0.86608804
N       6.12724042      0.17387975      0.28796910
O       5.81991641      0.64206735     -2.14507066
O       5.54139192      2.49442808     -0.42595196
C       2.89074541     -0.05015304      0.03399203
C      -1.36341833      0.90090705      0.62972349
C      -2.72592761      1.21025705      0.61198425
H      -5.98116225     -1.05132118      1.08907531
H      -6.96251379      0.18877079      0.29862176
H      -5.91399469     -0.82331403     -0.70231709
H      -3.98227053     -1.92428274      0.13807525
H      -1.59730237     -2.46789756      0.17407145
H       0.28121990      1.09525903     -1.75894296
H       6.75414068     -0.47630458     -0.18958822
H       6.62808851      0.78204630      0.93817018
H       3.33682877     -0.67785611      0.79841943
H      -0.64383282      1.69667342      0.80455843
H      -3.04671749      2.24053449      0.75222209
