33
CCCCCCc1ccc(C(=O)O)cc1
C      -5.59873545     -0.54373301      1.21100515
C      -4.61680171      0.26695059      0.38028556
C      -3.18000381     -0.21189067      0.58639761
C      -2.19548574      0.60611180     -0.25093678
C      -0.75749572      0.12704123     -0.04479720
C       0.22563495      0.94665945     -0.88331181
C       1.64775010      0.48179800     -0.68705971
C       2.18281101     -0.52643815     -1.49956288
C       3.49396107     -0.96872367     -1.30720813
C       4.28420225     -0.41048981     -0.29600287
C       5.66949156     -0.91194354     -0.12897054
O       6.20046403     -1.77929359     -0.79792980
O       6.33013866     -0.30255916      0.87177215
C       3.75263702      0.59212255      0.52272964
C       2.44066244      1.03305987      0.32846598
H      -5.56354328     -1.60296862      0.93692910
H      -5.37419386     -0.45716739      2.27891140
H      -6.61973333     -0.18453210      1.04837442
H      -4.88844070      0.18517430     -0.67859525
H      -4.70013437      1.32465885      0.65598946
H      -2.91477236     -0.13193787      1.64768441
H      -3.10306999     -1.27136898      0.31316379
H      -2.27236830      1.66546199      0.02266473
H      -2.46070937      0.52577205     -1.31215941
H      -0.49438784      0.20270905      1.01791438
H      -0.68227092     -0.93424615     -0.31371767
H       0.15138795      2.00998451     -0.62216045
H      -0.03558818      0.87881368     -1.94704811
H       1.58112706     -0.97485833     -2.28746012
H       3.89540309     -1.75124526     -1.94816628
H       7.21238185     -0.72917287      0.86138682
H       4.34931524      1.03611736      1.31567249
H       2.04036664      1.81013386      0.97646141
