23
CCOC(=O)C(Cl)C(=O)OCC
C       3.99703883      0.27556590     -0.68132861
C       3.12045135      0.11347769      0.54620099
O       2.04771671     -0.80049731      0.27027657
C       0.92983279     -0.25863980     -0.30277693
O       0.79270356      0.93006852     -0.56216910
C      -0.08634005     -1.33443371     -0.57414779
Cl      0.43320586     -2.23689455     -2.02646517
C      -1.47598704     -0.77783698     -0.75732359
O      -2.16279712     -0.84405870     -1.76856747
O      -1.90153758     -0.21519930      0.41718158
C      -3.20969580      0.36858809      0.35282401
C      -3.51924683      0.98329489      1.70374241
H       4.36790882     -0.69746630     -1.01989251
H       4.85123640      0.92335377     -0.46515490
H       3.43241636      0.70779605     -1.51346756
H       3.70697350     -0.31981710      1.36292661
H       2.74013422      1.07857870      0.89975108
H      -0.11728989     -2.04496252      0.25863879
H      -3.94783054     -0.40714955      0.12090475
H      -3.23147883      1.14449914     -0.42056718
H      -2.77575040      1.74540178      1.95975077
H      -3.48018753      0.22333403      2.49116316
H      -4.51147679      1.44299725      1.70519836
