33
CC(C)(CO)[C@@H](O)C(=O)NCCCO
C      -0.88469634      1.81095696     -0.18566184
C      -1.71154410      0.57106060      0.21358290
C      -1.59189833      0.36433758      1.73566101
C      -3.20415534      0.84233750     -0.09829426
O      -3.41105794      0.99757482     -1.50071479
C      -1.24423496     -0.69232393     -0.57057375
O      -1.28433884     -0.46981288     -1.99264664
C       0.17899035     -1.15444689     -0.19423371
O       0.43792030     -1.76956437      0.83788036
N       1.13970426     -0.77079425     -1.10602296
C       2.51221406     -1.21804912     -1.02483866
C       3.41434540     -0.25334214     -0.25837854
C       3.05455166     -0.06588481      1.21097890
O       2.97211251     -1.31127728      1.88719827
H      -0.93818376      2.01341948     -1.26035626
H       0.17103872      1.68978616      0.07818565
H      -1.24701220      2.70551662      0.33415975
H      -0.54758832      0.30144240      2.05817258
H      -2.04351411      1.19988391      2.28319164
H      -2.10163819     -0.55290075      2.05076408
H      -3.54899985      1.75549810      0.40016011
H      -3.83004912      0.00976066      0.24200809
H      -4.34185099      1.26628113     -1.61768619
H      -1.91258863     -1.53805954     -0.36821232
H      -2.09111736      0.06769804     -2.15735264
H       0.75968793     -0.46520243     -2.00134845
H       2.87371240     -1.30402842     -2.05547185
H       2.54387886     -2.22061690     -0.58448323
H       4.43714451     -0.64598864     -0.31620464
H       3.41587958      0.72638240     -0.75063397
H       3.82969082      0.53015562      1.70336893
H       2.10826238      0.47063216      1.33257287
H       2.08533465     -1.68026672      1.67522955
