45
CC1=C(C(=O)O)N2C(=O)[C@@H](NC(=O)[C@H](N)c3ccc(O)cc3)[C@H]2SC1.O
C       6.09868432     -0.44534353      0.46436324
C       4.66660083      0.00560313      0.30890137
C       4.12947961      0.42391082     -0.86088888
C       4.90036367      0.33875031     -2.13614420
O       5.60254790     -0.58492060     -2.50510497
O       4.77014512      1.46430494     -2.86310089
N       2.85800543      0.91617588     -0.92581571
C       1.89765690      0.80906261     -1.87466056
O       1.92078292      0.48371213     -3.03904881
C       0.79937410      1.14518589     -0.82372022
N      -0.28330269      0.14873293     -0.66707978
C      -1.29566218      0.31187863      0.25707928
O      -1.40786288      1.33937523      0.92202203
C      -2.23136024     -0.92062235      0.38127944
N      -2.00408847     -1.85729503     -0.75234303
C      -3.70363582     -0.56634344      0.47344668
C      -4.52571927     -1.23845065      1.39381345
C      -5.88994708     -0.95231779      1.46991919
C      -6.44181382      0.00193600      0.62519220
O      -7.77649682      0.25505039      0.73850687
C      -5.65297578      0.67379555     -0.30175143
C      -4.28815639      0.38623926     -0.38029543
C       1.97342806      1.11617493      0.20425857
S       2.09544189     -0.32141096      1.31127281
C       3.87438875     -0.09046094      1.59544083
O      -0.10016692      0.38492965      0.00000000
H       6.15016729     -1.53809755      0.50150151
H       6.75385241     -0.08810902     -0.33479696
H       6.51700814     -0.04968155      1.39769977
H       5.24379202      1.26107576     -3.69491691
H       0.38425329      2.14859061     -0.98840227
H      -0.22068809     -0.78706332     -1.06994053
H      -1.91244566     -1.42907607      1.29963407
H      -2.41970286     -1.43716806     -1.58593241
H      -2.57043092     -2.68896053     -0.57458571
H      -4.10890629     -1.98913332      2.06272103
H      -6.51824995     -1.46808482      2.19016207
H      -8.01142379      0.96061607      0.11309720
H      -6.07592972      1.42152353     -0.96472630
H      -3.68149817      0.92266297     -1.10783347
H       2.13382581      2.07904067      0.70316953
H       4.20530231     -0.96101502      2.17274285
H       4.04519614      0.80015630      2.21042495
H       0.78901696     -0.00020873      0.00000000
H      -0.68885004     -0.38472092      0.00000000
