19
CN(C=O)c1ccccc1
C       2.33609405      0.01576759      0.79980392
N       1.42424615      0.07610259     -0.33516360
C       1.99910295      0.22554069     -1.59081183
O       3.20119991      0.27781686     -1.83506434
C       0.00651027      0.00461493     -0.10472684
C      -0.92081322     -0.10852335     -1.15316360
C      -2.29882143     -0.17662945     -0.90570701
C      -2.78165360     -0.13601787      0.39642218
C      -1.88606362     -0.03126069      1.45251420
C      -0.50971138      0.03579992      1.20358375
H       2.13063588     -0.88220259      1.39133044
H       3.38227726     -0.03165436      0.48347431
H       2.21330098      0.91595387      1.41040579
H       1.28191008      0.31750199     -2.41396522
H      -0.62066565     -0.17192395     -2.19293849
H      -2.99308937     -0.26734626     -1.73790014
H      -3.85023542     -0.18924369      0.58678988
H      -2.25334377      0.00030062      2.47536511
H       0.13911994      0.12540314      2.06975149
