32
CCC1(c2ccccc2)C(=O)NC(=O)N(C)C1=O
C      -0.98188542      2.76650456     -1.39996067
C       0.20054449      1.93694816     -0.89975447
C      -0.14489348      0.48212248     -0.46796882
C       1.18735849     -0.16870458      0.00701674
C       2.06380744     -0.77944655     -0.91194723
C       3.26739605     -1.35214192     -0.49247277
C       3.63079598     -1.31167087      0.84928031
C       2.79758348     -0.68633711      1.77076797
C       1.59304276     -0.11262869      1.35445612
C      -0.71762922     -0.30092523     -1.64869090
O      -0.52514012     -0.02246031     -2.83103733
N      -1.43193621     -1.41778883     -1.32390756
C      -2.15995874     -1.56915253     -0.18445150
O      -3.03275339     -2.43473816     -0.14651232
N      -1.92719048     -0.66771918      0.83271165
C      -2.77750562     -0.75760310      2.00615334
C      -1.17316707      0.48983703      0.67516253
O      -1.28422928      1.44528150      1.44870862
H      -1.75107131      2.88775640     -0.63265006
H      -1.44833557      2.32294708     -2.28358369
H      -0.63658140      3.76769447     -1.67903859
H       0.95768863      1.92154209     -1.69559514
H       0.65804344      2.47750988     -0.05988048
H       1.83594096     -0.80970255     -1.97662853
H       3.92618360     -1.82165552     -1.21910092
H       4.56936565     -1.75308340      1.17391485
H       3.08915878     -0.63393351      2.81706774
H       0.99133653      0.39197156      2.10870810
H      -1.76871848     -1.96438839     -2.10485476
H      -2.28562161     -0.30754861      2.87388227
H      -3.70807980     -0.21760839      1.80366439
H      -3.01354908     -1.80087777      2.23654114
