41
CCC(=O)OCOC(=O)c1cn(CC)c2nc(C)ccc2c1=O
C      -7.45100464     -0.83330100     -1.24909015
C      -5.93293379     -0.79994794     -1.26919482
C      -5.38387808      0.43504470     -0.59631466
O      -6.05169939      1.33086420     -0.10050644
O      -4.02479098      0.40260270     -0.63180939
C      -3.42072287      1.51938832      0.01942450
O      -1.99561158      1.41459271     -0.03258699
C      -1.45231283      0.60479249      0.90136742
O      -2.07539566     -0.04283346      1.73248121
C       0.01580710      0.54755421      0.76028002
C       0.65054907     -0.54244653      1.21807322
N       2.01225257     -0.77441496      1.15302039
C       2.64246232     -2.00939584      1.63326008
C       2.70564453     -3.05667405      0.53016441
C       2.85655721      0.15631105      0.50627091
N       4.18273697     -0.10014942      0.37955122
C       4.97482239      0.80957028     -0.24068185
C       6.43372697      0.48217761     -0.35591959
C       4.48593215      2.00300397     -0.75633273
C       3.12920997      2.27239270     -0.63131041
C       2.30559175      1.33976696      0.00363514
C       0.85573967      1.60686530      0.15063636
O       0.39900659      2.68713116     -0.20939307
H      -7.81907761     -1.73877081     -1.74119284
H      -7.87034043      0.03403877     -1.76976250
H      -7.83095124     -0.82291122     -0.22207609
H      -5.54440744     -1.68080786     -0.74724244
H      -5.58298346     -0.81399782     -2.30674371
H      -3.68522490      2.43645122     -0.51904204
H      -3.76603800      1.61364331      1.05744645
H       0.09648695     -1.35525427      1.68551508
H       3.64218231     -1.82626001      2.04590439
H       2.05723327     -2.41575329      2.46840429
H       3.14792858     -3.98195467      0.91239179
H       3.31202249     -2.71488640     -0.31455372
H       1.70511906     -3.28948631      0.15069508
H       7.03293949      1.23935249      0.15918950
H       6.73033906      0.44251674     -1.40861744
H       6.65135368     -0.49076218      0.09641300
H       5.14465357      2.71313343     -1.24627173
H       2.71707520      3.19881374     -1.02386155
