45
CC1=NN(c2ccccc2)C(=O)/C1=C/C1C(=O)N(c2ccccc2)N=C1C
C       0.82969230      2.88457275      0.24051997
C       1.66586340      1.65101004      0.20857110
N       2.95189247      1.67755601     -0.01348143
N       3.38979587      0.35413307      0.01666299
C       4.76641454      0.09440681     -0.20346631
C       5.65541664      1.15533517     -0.44420614
C       7.01711104      0.92432824     -0.66330530
C       7.51387273     -0.37484074     -0.64559329
C       6.64928603     -1.43967564     -0.40963083
C       5.28643836     -1.20665752     -0.19048939
C       2.37291322     -0.57620255      0.27247296
O       2.37824491     -1.78924910      0.38232129
C       1.16637947      0.28355071      0.42507696
C      -0.03825519     -0.23730265      0.70378931
C      -1.33199941      0.48563902      0.92778470
C      -2.20474362      0.43662652     -0.30945696
O      -1.89596261      0.91939635     -1.38835736
N      -3.35668463     -0.25894924      0.09590435
C      -4.49316449     -0.58799996     -0.68640773
C      -4.59173856     -0.23489031     -2.03866941
C      -5.72405699     -0.57079442     -2.79034341
C      -6.77630565     -1.26565651     -2.20155022
C      -6.69789244     -1.62611145     -0.86050573
C      -5.56606813     -1.28984889     -0.11113734
N      -3.33670746     -0.64865407      1.42455484
C      -2.20986240     -0.23751325      1.91593397
C      -1.81093270     -0.43876266      3.33936491
H      -0.03191201      2.77629334     -0.42144085
H       1.41812952      3.74207660     -0.09916295
H       0.49636808      3.07647673      1.26345506
H       5.29597353      2.18146671     -0.46556352
H       7.68479543      1.76161141     -0.84833727
H       8.57134453     -0.55777619     -0.81646451
H       7.03091247     -2.45760848     -0.39610873
H       4.65232009     -2.07011951     -0.01282388
H      -0.09907343     -1.32673602      0.77236543
H      -1.21963242      1.51641986      1.26683275
H      -3.79795772      0.30550996     -2.54541658
H      -5.77850820     -0.28747315     -3.83865064
H      -7.65398263     -1.52618611     -2.78705890
H      -7.51447911     -2.16997233     -0.39296075
H      -5.53399928     -1.58659712      0.93461256
H      -2.63792561     -0.87284123      3.90745112
H      -0.95170682     -1.11211617      3.38973380
H      -1.53961312      0.52412594      3.77984850
