33
COc1cc(O)c(C(=O)c2ccccc2)cc1S(=O)(=O)[O-].[Na+]
C       4.82454118     -0.08263532     -0.35201915
O       3.90027397      0.35479263     -1.34753858
C       2.62520247      0.49297411     -0.87432103
C       2.10794657      1.78899165     -1.00163547
C       0.81626389      2.08502103     -0.56994118
O       0.40936428      3.38837300     -0.70358889
C      -0.00365487      1.08605547     -0.02810929
C      -1.38987738      1.42149534      0.39301849
O      -1.64702101      2.59484728      0.67374858
C      -2.48204354      0.41850013      0.46074451
C      -2.59704767     -0.61970381     -0.47055855
C      -3.65170481     -1.53000474     -0.37278132
C      -4.60361211     -1.39442351      0.63766651
C      -4.50815182     -0.34534251      1.55119146
C      -3.45254503      0.56347623      1.46053494
C       0.51401925     -0.20345379      0.11555452
C       1.81414657     -0.50955197     -0.33194612
S       2.30815719     -2.25205751     -0.25495322
O       1.02738545     -2.95086435     -0.15243578
O       3.12113903     -2.27602726      0.95747596
O       3.01238213     -2.47510160     -1.51150886
Na      0.00000000      0.00000000      0.00000000
H       5.07856169     -1.13329028     -0.51112686
H       4.47269966      0.08373680      0.67254353
H       5.74423455      0.49714776     -0.48066591
H       2.72456490      2.57318020     -1.43210179
H      -0.43822968      3.47583485     -0.21162998
H      -1.87592693     -0.74116264     -1.27594093
H      -3.72262505     -2.34950749     -1.08426753
H      -5.41880186     -2.10933497      0.71215091
H      -5.25173045     -0.23670148      2.33591253
H      -3.38248378      1.38157235      2.17395490
H      -0.07542676     -0.99683559      0.56952702
