37
CCCC[Sn+2]CCCC.O=C([O-])/C=C/C(=O)[O-]
C      -4.95460075      0.10368220     -0.34826889
C      -3.78020670     -0.70477900     -0.87730545
C      -2.53019231     -0.07705735     -0.35206394
C      -1.27801172     -0.79468095     -0.81057999
Sn      0.41469173      0.24046021      0.03560652
C       2.05047991      1.25839145      0.97950099
C       2.94079147      0.20996373      1.59602243
C       3.44490264     -0.71487549      0.51087626
C       4.22191237      0.13967708     -0.47772137
O      -2.79199321     -0.07059339     -1.01067527
C      -1.86829304      0.08146368     -0.17746883
O      -2.22041399      0.43716024      1.10822342
C      -0.47258664     -0.09829768     -0.50573890
C       0.44301104      0.07980128      0.42625346
C       1.86656766     -0.08302273      0.17096734
O       2.67782699      0.10316162      1.10670268
O       2.37266674     -0.43726304     -1.06837253
H      -5.83443310     -0.20509184     -0.96122526
H      -4.76008116      1.17684331     -0.59103848
H      -5.11640691     -0.07418012      0.72123661
H      -3.81571238     -0.77192735     -1.97684564
H      -3.84686105     -1.75930710     -0.50514439
H      -2.52125908      0.98210391     -0.60039231
H      -2.55785104     -0.15443249      0.75850407
H      -1.23227897     -1.82752886     -0.47269691
H      -1.14967694     -0.76158535     -1.90835123
H       2.58558356      1.90669796      0.26000633
H       1.66378565      1.93349839      1.78912380
H       2.29295375     -0.38549451      2.28813628
H       3.79587314      0.66277515      2.12542972
H       4.08766169     -1.49621416      0.93714982
H       2.60103901     -1.19583209      0.00480333
H       4.53791576      1.11094760     -0.02796136
H       3.57904132      0.36621384     -1.33091444
H       5.16094012     -0.37889169     -0.76588652
H      -0.11887259     -0.37565105     -1.48732949
H       0.11208703      0.36324106      1.43743812
