20
S=C=Nc1ccc2ccccc2c1Br
S       5.04284941      0.45540754      1.51705032
C       4.01310372      0.17946330      0.06635056
N       3.35022273     -0.00668896     -0.88627849
C       1.99005135     -0.19786099     -0.55781541
C       1.54140014     -1.50194525     -0.32381544
C       0.20539708     -1.75334813     -0.01743850
C      -0.72704442     -0.71033493      0.04929633
C      -2.06616923     -0.99582762      0.36354887
C      -3.02048549      0.01650531      0.43178246
C      -2.64735486      1.32930372      0.18487759
C      -1.31921926      1.62875245     -0.12940514
C      -0.32074835      0.62397588     -0.20568858
C       1.05052458      0.85838733     -0.51938869
Br      1.66731598      2.63312664     -0.91093756
H       2.23918021     -2.33460035     -0.38293047
H      -0.10270859     -2.78163119      0.16501832
H      -2.38102709     -2.01938209      0.55883559
H      -4.05236419     -0.22179660      0.67611724
H      -3.38581173      2.12562532      0.23499987
H      -1.07711199      2.67286862     -0.31417885
