22
CCCNCCC
C       3.50373334     -0.66385769      0.39345520
C       2.14473544     -0.63979235     -0.28918631
C       1.11579880      0.12479796      0.54446831
N      -0.17658683      0.11583157     -0.14030400
C      -1.18722675      0.84546219      0.62487245
C      -2.53421201      0.85477709     -0.10292300
C      -3.13852315     -0.53282783     -0.26740576
H       3.88724195      0.35097002      0.53970080
H       4.22520630     -1.21484259     -0.21795705
H       3.44318220     -1.15300296      1.37090690
H       1.80723620     -1.67097548     -0.44987921
H       2.25038220     -0.17544209     -1.27724976
H       1.02110387     -0.34936799      1.52855840
H       1.45931806      1.15534149      0.69491774
H      -0.07895566      0.53453889     -1.06494032
H      -0.86625152      1.88333155      0.77472034
H      -1.31508773      0.38895170      1.61363313
H      -3.23471417      1.47699596      0.46687686
H      -2.42647472      1.32343418     -1.08867659
H      -2.51414997     -1.17025482     -0.90095104
H      -3.26077331     -1.02424387      0.70308768
H      -4.12498255     -0.45982493     -0.73640200
