22
Clc1ccc(-c2ccc(Cl)cc2Cl)c(Cl)c1
Cl      5.21097310      0.17446165     -0.75046491
C       3.51050305      0.11410441     -0.49747407
C       2.65123903      0.64342786     -1.45644374
C       1.26994052      0.59645838     -1.25214786
C       0.73061493      0.01866712     -0.08802621
C      -0.73094051     -0.01338145      0.08626823
C      -1.37264059      1.07873900      0.69895802
C      -2.75721524      1.08523283      0.88561019
C      -3.51746053     -0.00059452      0.46000009
Cl     -5.22229706      0.01030341      0.68947786
C      -2.90930893     -1.09278775     -0.15130742
C      -1.52384223     -1.09849463     -0.33744434
Cl     -0.82664304     -2.48114623     -1.11129590
C       1.62230486     -0.50761690      0.86780363
Cl      1.05400240     -1.22750989      2.33594674
C       3.00455728     -0.46087084      0.66435686
H       3.04709256      1.09054819     -2.36508503
H       0.60975400      1.00914659     -2.01379406
H      -0.79009756      1.93253287      1.04238513
H      -3.23271799      1.93735681      1.36522333
H      -3.50932791     -1.93670698     -0.48106770
H       3.68150986     -0.87186992      1.40852117
