55
CN(Cc1cnc2nc(N)nc(N)c2n1)c1ccc(C(=O)NC(CCC(=O)O)C(=O)O)cc1
C      -2.17659502      0.43327473     -3.34847098
N      -1.80373233      1.43740338     -2.34484529
C      -2.94447227      2.20147131     -1.79646020
C      -3.72600841      1.44112858     -0.74233850
C      -3.77021344      1.88881348      0.56920555
N      -4.46709918      1.25456360      1.54294403
C      -5.12329667      0.13359707      1.21834706
N      -5.79881882     -0.47989218      2.18805228
C      -6.46103353     -1.58866897      1.86627264
N      -7.14651247     -2.22858346      2.87640359
N      -6.47580036     -2.15012771      0.66158734
C      -5.79523737     -1.51088428     -0.30425390
N      -5.77999920     -2.15494869     -1.55856653
C      -5.07896163     -0.33299199     -0.10492668
N      -4.40703325      0.32423929     -1.10172688
C      -0.66269311      1.22725604     -1.56521593
C       0.16595714      0.10170188     -1.73531015
C       1.32537802     -0.10856755     -0.97226109
C       1.69933222      0.81382936      0.00341914
C       2.92382005      0.65240594      0.84109943
O       3.41773173      1.61926425      1.41513984
N       3.45149265     -0.61624360      0.93188687
C       4.59907438     -0.93654501      1.78533258
C       5.92498814     -0.82653529      1.02259160
C       6.29881142      0.62117223      0.68718073
C       7.66429074      0.72033534      0.04808354
O       8.38419352     -0.22521257     -0.23291460
O       8.02152227      2.00444606     -0.20192015
C       4.40412546     -2.37230355      2.27604883
O       3.65570065     -3.20470232      1.77522748
O       5.16023789     -2.67990871      3.34783320
C       0.91534304      1.95616931      0.17592491
C      -0.23787071      2.15696509     -0.60029585
H      -1.36697905      0.27877194     -4.06813241
H      -3.03979953      0.76347563     -3.93308580
H      -2.44043140     -0.52252658     -2.88157261
H      -2.62626053      3.18069556     -1.42153835
H      -3.64184203      2.44657109     -2.60871923
H      -3.24668298      2.78273714      0.88768904
H      -6.77448223     -1.95490983      3.77737646
H      -7.21787655     -3.21767154      2.68025976
H      -5.90374935     -1.48628236     -2.31874457
H      -6.45102734     -2.91638032     -1.55128411
H      -0.06948740     -0.65822931     -2.47421978
H       1.92298219     -0.99046867     -1.18736678
H       2.91869431     -1.41253039      0.59482190
H       4.58117113     -0.27331006      2.66103117
H       6.72894800     -1.27448124      1.62335046
H       5.87645863     -1.41779539      0.09343520
H       6.30788561      1.22281415      1.60774804
H       5.57990325      1.04411315     -0.02324118
H       7.34077654      2.65407832      0.06977581
H       4.94129838     -3.61750022      3.54334089
H       1.19882414      2.70926240      0.91058318
H      -0.77494534      3.08764543     -0.43804044
