48
C[C@H](CCc1ccccc1)NC[C@H](O)c1ccc(O)c(C(N)=O)c1
C       1.25722987      2.22645815      1.32672218
C       1.40291564      0.71650042      1.54083428
C       2.85281591      0.25416542      1.27685884
C       3.34622471      0.47445284     -0.15865766
C       4.77599237      0.01749881     -0.32501603
C       5.06289878     -1.29899276     -0.71248507
C       6.38567791     -1.72177684     -0.85239838
C       7.43248641     -0.83541725     -0.60257568
C       7.15771593      0.47291800     -0.20954552
C       5.83577688      0.89784647     -0.06844567
N       0.47508981     -0.06612088      0.70372750
C      -0.94538297      0.15594123      1.06097927
C      -1.86036573     -0.71402324      0.15576252
O      -1.43128820     -0.51740267     -1.20260507
C      -3.34908543     -0.42971611      0.25681940
C      -3.94446176      0.03187392      1.44066091
C      -5.32220528      0.25299542      1.51126892
C      -6.12729793      0.01248081      0.40204554
O      -7.46631865      0.24909467      0.56763970
C      -5.56873731     -0.45061762     -0.79627722
C      -6.44935581     -0.68851863     -1.97156660
N      -5.87612983     -0.83781503     -3.20365975
O      -7.67018793     -0.71104767     -1.84036275
C      -4.18713777     -0.69168846     -0.84783072
H       2.06386737      2.76804037      1.83144513
H       0.31539240      2.59978091      1.74231702
H       1.28177973      2.49362153      0.26479319
H       1.19335329      0.49827990      2.59624282
H       3.51928182      0.77800141      1.97572475
H       2.93906461     -0.81136316      1.52989314
H       3.28257751      1.53318013     -0.43521382
H       2.71257037     -0.06468341     -0.87320567
H       4.25671244     -2.00104168     -0.91128642
H       6.59968159     -2.74191525     -1.15911241
H       8.46177032     -1.16466875     -0.71414653
H       7.97311444      1.16343206     -0.01269805
H       5.63633403      1.92092302      0.24170711
H       0.68683099     -1.05856236      0.83604449
H      -1.11062205     -0.08417493      2.11685701
H      -1.20045919      1.20871092      0.89640105
H      -1.70055833     -1.77337331      0.39261032
H      -0.47808124     -0.30417342     -1.12809398
H      -3.35571713      0.22302548      2.33434969
H      -5.77156277      0.61058754      2.43452482
H      -7.92684827     -0.04737884     -0.25023163
H      -6.51022874     -0.87252613     -3.99125181
H      -4.92030393     -0.57344232     -3.39524495
H      -3.73481890     -1.09936871     -1.74879529
