22
CN1CCN(C)CC1
C       2.80574943     -0.45419686     -0.00697940
N       1.37995176     -0.29848103     -0.28236121
C       0.58607232     -1.25689376      0.51177773
C      -0.93430351     -1.07450677      0.29674500
N      -1.37995340      0.29847206      0.60622364
C      -2.80575071      0.45419452      0.33085070
C      -0.58607367      1.25689565     -0.18790354
C       0.93430464      1.07450278      0.02710901
H       3.39248550      0.23788202     -0.62108066
H       3.13809807     -1.46526702     -0.26703594
H       3.04976644     -0.27178402      1.04584376
H       0.85294341     -2.28015170      0.22101348
H       0.81090566     -1.15148068      1.58194965
H      -1.18254214     -1.33661054     -0.74085013
H      -1.45992588     -1.78363203      0.94765342
H      -3.39248647     -0.23789640      0.94494011
H      -3.13809372      1.46526191      0.59092950
H      -3.04977016      0.27180787     -0.72197626
H      -0.81091580      1.15150445     -1.25807234
H      -0.85293967      2.28014874      0.10287800
H       1.18255324      1.33660973      1.06469896
H       1.45992466      1.78362107     -0.62381056
