24
CC1=C(C(=O)O)N2C(=O)C(N)C2SC1
C      -3.03566327     -0.47756076     -0.21669912
C      -1.53718452     -0.60454696     -0.08642974
C      -0.72060147      0.43122791      0.21745398
C      -1.26175975      1.77311722      0.56323084
O      -2.13496156      2.02024208      1.37488359
O      -0.69024859      2.73219605     -0.18832297
N       0.62411994      0.26253865      0.26357344
C       1.69828807      0.92339184      0.73797574
O       1.84620956      2.00601707      1.25211619
C       2.60495742     -0.31901128      0.39583225
N       3.67981391     -0.04231282     -0.58731888
C       1.32645784     -0.85762305     -0.32163448
S       0.60592720     -2.36956724      0.36575156
C      -1.04780920     -2.02475801     -0.31361394
H      -3.52969806     -0.94703890      0.63998645
H      -3.37530948     -0.98134893     -1.12863452
H      -3.38206944      0.55632791     -0.29014096
H      -1.05056477      3.56540623      0.17805961
H       2.94314723     -0.87144793      1.27819251
H       4.47511939      0.43335851     -0.15547313
H       3.39329636      0.58398609     -1.34227454
H       1.34527879     -0.81720469     -1.41793283
H      -1.73131355     -2.73197600      0.16847156
H      -1.04543205     -2.24341297     -1.38705260
