38
CCOP(=O)(OCC)Oc1ccc2c(C)c(Cl)c(=O)oc2c1
C      -3.63978488      2.92153448     -0.51188054
C      -3.57533984      1.59675860      0.21923896
O      -2.40142194      0.91381697     -0.18233372
P      -2.16641162     -0.55075865      0.45022397
O      -2.24575660     -0.61078465      1.94542401
O      -3.27264252     -1.44725125     -0.30844410
C      -3.34639208     -2.81129673      0.06722803
C      -4.37276266     -3.50095128     -0.80717142
O      -0.78158454     -1.04046216     -0.20701733
C       0.44322917     -0.50200947      0.06084447
C       0.67588550      0.49219645      1.00593951
C       1.97531534      0.98106983      1.21074073
C       3.06281623      0.48601603      0.47690702
C       4.45175017      0.95857365      0.64574773
C       4.70090592      2.03731423      1.66956712
C       5.41028480      0.40143873     -0.12062360
Cl      7.07784204      0.87842977     -0.00841065
C       5.13457587     -0.66336442     -1.12437622
O       6.00827315     -1.16974039     -1.82110031
O       3.81434060     -1.07165324     -1.24385892
C       2.79457595     -0.50973109     -0.45949217
C       1.50850588     -1.00824781     -0.67609064
H      -4.53421633      3.48211288     -0.22623427
H      -3.65248427      2.76370197     -1.59540685
H      -2.75594153      3.52839969     -0.28896792
H      -4.45451781      0.99091085     -0.02148450
H      -3.54561134      1.76557351      1.30024810
H      -2.36635941     -3.28185657     -0.06021609
H      -3.64005519     -2.88211315      1.11920322
H      -4.46092660     -4.55906145     -0.54546839
H      -4.09603985     -3.41992929     -1.86356454
H      -5.35373542     -3.02676803     -0.69782443
H      -0.12832426      0.90848559      1.60683141
H       2.10486589      1.75663200      1.96196104
H       4.13125946      2.94005927      1.42212282
H       5.74714261      2.34337989      1.74541525
H       4.40514958      1.69479542      2.66750197
H       1.34359054     -1.78522018     -1.41755418
