22
CC(O)(C(=O)O)c1ccccc1
C      -1.90995441     -1.42644929     -0.03266888
C      -1.25865948     -0.04209144      0.02461172
O      -1.77596805      0.70018458     -1.11170719
C      -1.80607186      0.65563350      1.29640240
O      -1.49181171      0.40516980      2.44977634
O      -2.72973931      1.60710373      0.97690737
C       0.26596743     -0.01213323     -0.04597870
C       0.95829528      1.17988342      0.24848323
C       2.35012752      1.24992586      0.15514920
C       3.07854068      0.13429476     -0.24363749
C       2.41553554     -1.05005359     -0.55026937
C       1.02245262     -1.12251522     -0.45655577
H      -1.73392713     -1.91333749     -0.99863095
H      -2.99923931     -1.34904681      0.07211846
H      -1.54482390     -2.08151598      0.76594377
H      -1.00514527      1.01184021     -1.62428769
H      -2.81693729      1.60915214     -0.00739794
H       0.42107559      2.07282858      0.56656944
H       2.86504348      2.17581534      0.40006062
H       4.16203808      0.18639303     -0.31214689
H       2.98394932     -1.92325062     -0.86183467
H       0.54925218     -2.06783128     -0.71090700
