21
CC(C)C(C)CO
C      -1.60114346     -0.64726356      1.23703210
C      -0.96853337      0.34570728      0.25603119
C      -1.47309814      0.06020846     -1.16105201
C       0.57908175      0.36936733      0.38119195
C       1.18018604      1.56044264     -0.38031049
C       1.25705452     -0.93852727     -0.05292571
O       2.64718646     -0.88244769      0.24958729
H      -1.37529474     -1.68472920      0.97200364
H      -2.69137503     -0.53884768      1.24134299
H      -1.24710565     -0.46812264      2.25755434
H      -1.33591945      1.34187822      0.53821743
H      -2.56674275      0.11889719     -1.19576303
H      -1.18735916     -0.94060578     -1.49980219
H      -1.08712186      0.78946187     -1.87907258
H       0.82598176      0.53597169      1.43925994
H       1.09330002      1.43450677     -1.46406135
H       0.67965581      2.49401061     -0.10250592
H       2.24337347      1.67820564     -0.14500308
H       1.15129217     -1.10555782     -1.12946073
H       0.84021296     -1.79784923      0.47916961
H       3.03636867     -1.72470682     -0.04143339
