27
C=C(C)C1CCC(C)C(=O)C1
C      -2.95586366      0.84756051      0.66022429
C      -2.27337769     -0.22029212      0.21142605
C      -2.97471979     -1.54854843      0.05952954
C      -0.80348714     -0.20327153     -0.20361017
C      -0.23585395      1.19651684     -0.52145228
C       1.21038316      1.10726491     -1.01168318
C       2.11517616      0.43878989      0.02528673
C       3.53583900      0.29384777     -0.51058833
C       1.51821354     -0.90660794      0.41880706
O       2.18267631     -1.94108830      0.46618604
C       0.06845769     -0.89156099      0.85433175
H      -4.00640091      0.77369695      0.92933278
H      -2.50550692      1.82634049      0.78228201
H      -4.04137526     -1.48195029      0.29982258
H      -2.89306056     -1.90512231     -0.97245254
H      -2.53488643     -2.29781631      0.72430744
H      -0.72916706     -0.78010353     -1.13747738
H      -0.84360495      1.68201552     -1.29483414
H      -0.26550588      1.83858311      0.36786014
H       1.23501881      0.54492259     -1.95412751
H       1.57880847      2.11633292     -1.23179666
H       2.14833835      1.05063367      0.93556088
H       3.56420976     -0.34775391     -1.39827891
H       3.95248962      1.26974839     -0.78059287
H       4.19265152     -0.15519937      0.24235145
H      -0.24875610     -1.92903580      1.00783720
H       0.00930393     -0.37790273      1.82112451
