29
NS(=O)(=O)c1nnc(NS(=O)(=O)c2cccc([N+](=O)[O-])c2)s1
N       6.59659464     -0.60233666     -0.78283181
S       5.29728074     -1.28939225      0.04825437
O       5.28565235     -2.69873559     -0.27041877
O       5.36206357     -0.78776769      1.40172573
C       3.81524767     -0.63575716     -0.64014302
N       3.75060945      0.15571119     -1.69321815
N       2.43796447      0.47628080     -1.98981816
C       1.60444143     -0.05518229     -1.12514347
N       0.17107432      0.11744376     -1.29311071
S      -0.41482817      1.33719679     -0.27842687
O       0.41771389      1.48178092      0.89417368
O      -0.73814814      2.45895532     -1.13132248
C      -1.94802815      0.60381143      0.24913084
C      -1.95644688     -0.22564503      1.37725365
C      -3.15662489     -0.78767558      1.81522180
C      -4.34564739     -0.51792778      1.13375332
C      -4.32791840      0.32306991      0.01080185
N      -5.57945852      0.60277255     -0.70477609
O      -6.63588391      0.20454961     -0.19530173
O      -5.50028122      1.21381096     -1.77941073
C      -3.13058255      0.89519305     -0.43796209
S       2.31872602     -1.06284698      0.05628662
H       6.73695768      0.37098330     -0.51153655
H       6.52090020     -0.74135401     -1.79063506
H       0.01091481      0.43662009     -2.25169260
H      -1.03677682     -0.43380150      1.92230491
H      -3.16694418     -1.43293910      2.69199093
H      -5.27261196     -0.96497994      1.48981757
H      -3.11596005      1.55816189     -1.30137016
