76
CN[C@@H](C)[C@@H]1CC[C@@H](N)C(O[C@@H]2[C@@H](N)C[C@@H](N)C(O[C@H]3OC[C@](C)(O)[C@H](NC)[C@H]3O)[C@@H]2O)O1
C       3.89570346      3.91502183     -1.73146566
N       3.47687471      2.98157725     -0.69285408
C       4.62393638      2.28202871     -0.06770873
C       5.27973807      3.18106635      0.98227011
C       4.10952872      0.94459129      0.54825242
C       5.23523276      0.09889858      1.15524787
C       4.70000461     -1.23568977      1.66794427
C       3.89719811     -1.96130025      0.58468824
N       3.31921728     -3.18722029      1.16337086
C       2.84742988     -0.99478795     -0.03771393
O       2.24318789     -1.62744419     -1.17199088
C       0.94416561     -2.17561359     -0.88188599
C       0.73436897     -3.40511163     -1.79674795
N       1.76787288     -4.42614894     -1.52077001
C      -0.66553029     -3.99884143     -1.60247046
C      -1.75441313     -2.94034464     -1.82565190
N      -3.08401787     -3.54242162     -1.59207701
C      -1.53383345     -1.70260564     -0.91669670
O      -2.55923651     -0.74365612     -1.22498637
C      -3.03668998     -0.02513355     -0.07593628
O      -1.96287437      0.67549859      0.53860189
C      -2.33259209      1.86339354      1.24523030
C      -3.79447770      1.89997356      1.71934293
C      -4.05021707      3.16688394      2.54283848
O      -4.01654683      0.77966152      2.60531520
C      -4.77226840      1.78967223      0.50478687
N      -6.09619800      1.30466746      1.01162418
C      -7.13060890      1.34670345     -0.02591681
C      -4.14262827      0.91181414     -0.60358794
O      -3.59405248      1.78992527     -1.61526577
C      -0.12979622     -1.10710132     -1.15082049
O       0.01010133     -0.63012101     -2.50096704
O       3.48180733      0.19510803     -0.51198842
H       4.48115214      4.74284605     -1.32336996
H       3.01176160      4.34857356     -2.20707573
H       4.47715910      3.41236738     -2.50940183
H       2.89783501      2.25722004     -1.13421229
H       5.35486901      2.02843228     -0.84731171
H       6.18553510      2.71985486      1.38852161
H       5.58716103      4.14386715      0.56074825
H       4.59783274      3.38222683      1.81656393
H       3.35412864      1.16821853      1.31430318
H       5.99784755     -0.10083112      0.39232387
H       5.72326770      0.62320330      1.98289026
H       5.53902580     -1.85943564      2.00299406
H       4.06747882     -1.05205166      2.54789620
H       4.58812176     -2.26847776     -0.21098652
H       2.83214830     -3.70314990      0.41925201
H       4.07105373     -3.80611240      1.46512926
H       2.08869587     -0.70443086      0.70014205
H       0.88191924     -2.49680803      0.16632093
H       0.86056655     -3.10743333     -2.84558921
H       2.66462986     -4.01524681     -1.79238945
H       1.62448167     -5.21198195     -2.15665419
H      -0.75283003     -4.41265984     -0.58799238
H      -0.81355688     -4.83545620     -2.29848678
H      -1.74008058     -2.62268437     -2.87599492
H      -3.76920289     -2.78872491     -1.68212502
H      -3.15301037     -3.85883631     -0.62531721
H      -1.62358249     -2.02118300      0.13202046
H      -3.46042961     -0.74668500      0.63186731
H      -1.65389771      1.92594550      2.10362628
H      -2.11496254      2.72077016      0.59750516
H      -5.06460206      3.18273727      2.95582593
H      -3.37227912      3.20873573      3.40402108
H      -3.90251561      4.07147242      1.94435462
H      -4.95245457      0.52272696      2.46268293
H      -4.91823186      2.80081815      0.09696894
H      -6.40404457      1.94454891      1.74951653
H      -7.21494872      2.34345421     -0.47525209
H      -6.95714689      0.60556384     -0.81167644
H      -8.09680969      1.10365164      0.42772573
H      -4.88883468      0.31175326     -1.13323435
H      -2.93475677      1.24104530     -2.09289450
H       0.03712158     -0.23367153     -0.51536407
H       0.95399841     -0.38711648     -2.59133432
