16
O=C(O)c1cc(Cl)ccc1O
O       2.63579838     -1.11497354     -0.10644279
C       2.00272743     -0.08258489     -0.25067712
O       2.59556416      1.07374041     -0.58710639
C       0.53819313      0.02615095     -0.07810040
C      -0.12393922      1.24779549     -0.26046100
C      -1.50651491      1.31687130     -0.09008623
Cl     -2.31835232      2.81755682     -0.31430646
C      -2.23843934      0.18291096      0.26005863
C      -1.58330716     -1.03512597      0.44255858
C      -0.20161742     -1.11283520      0.27422035
O       0.35812736     -2.34671255      0.47305140
H       3.54820276      0.85504093     -0.66650199
H       0.42895374      2.14294956     -0.53352371
H      -3.31595511      0.23955817      0.39221586
H      -2.14734194     -1.92366945      0.71564967
H       1.32790047     -2.28667299      0.32945161
