27
C=C(C)C(=O)OCC(F)(F)C(F)(F)C(F)(F)C(F)F
C       3.72946630      0.41477221      2.06981091
C       3.16375880     -0.09062116      0.96062453
C       3.70415918     -1.29426128      0.25373292
C       1.94793566      0.58616455      0.42960093
O       1.41855803      1.56385838      0.93456368
O       1.51560158     -0.03909814     -0.69484190
C       0.31834701      0.51247863     -1.28424812
C      -0.93678242     -0.10382793     -0.66921540
F      -0.94389607      0.07810493      0.67589166
F      -0.90732551     -1.45184541     -0.85526397
C      -2.19619605      0.48276020     -1.28327587
F      -2.22679693      1.82824379     -1.07014092
F      -2.12878025      0.33843059     -2.64387885
C      -3.46777657     -0.17260627     -0.77363806
F      -4.53578044      0.37563649     -1.43062817
F      -3.47810873     -1.49675209     -1.10408984
C      -3.66970861     -0.02591064      0.72437716
F      -4.90631303     -0.47578978      1.07760537
F      -3.61562043      1.27375256      1.10434938
H       3.32269575      1.28943624      2.57209648
H       4.61590165     -0.03170246      2.50875732
H       3.98991334     -1.04310994     -0.77301977
H       2.95634018     -2.09365888      0.22593148
H       4.59328759     -1.69432807      0.75310892
H       0.36969812      0.26764769     -2.35048073
H       0.31954814      1.60545070     -1.19985046
H      -2.95212627     -0.60322491      1.31027502
