31
O=C1c2ccccc2C2=Nc3cccc4cccc(c34)N12
O       1.42348701     -2.79096348      0.67953986
C       1.42845984     -1.60955568      0.38530277
C       2.66951325     -0.85244358      0.18331497
C       3.98598454     -1.26300962      0.27127274
C       4.97376193     -0.30448404      0.02188052
C       4.62765310      1.02350316     -0.30504657
C       3.28810317      1.41630794     -0.38833081
C       2.33275609      0.45183439     -0.13780801
C       0.88397250      0.52934972     -0.14139923
N       0.18038596      1.58315110     -0.39617558
C      -1.22217332      1.41464870     -0.33900539
C      -2.03934963      2.51451468     -0.60401942
C      -3.42771667      2.39133489     -0.55829062
C      -4.01112197      1.16196474     -0.24584216
C      -3.21207428      0.03991822      0.02489184
C      -3.76726644     -1.20917009      0.34194822
C      -2.94459845     -2.30621338      0.60620240
C      -1.55601534     -2.17409445      0.55824543
C      -0.98436215     -0.93918121      0.24454015
C      -1.80611712      0.17157670     -0.02313816
N       0.40522053     -0.71976359      0.17483315
H       4.23848875     -2.28780445      0.52372121
H       6.02404647     -0.58508111      0.08036383
H       5.41504984      1.75097439     -0.49473277
H       3.00690571      2.43390623     -0.63867363
H      -1.58507824      3.47118120     -0.84716797
H      -4.05484156      3.25438982     -0.76640115
H      -5.09597544      1.08604257     -0.21517113
H      -4.84681050     -1.33729742      0.38556121
H      -3.38676627     -3.26926353      0.85080300
H      -0.94352130     -3.04627285      0.76878131
