13
C=C1CCOC1=O
C      -1.91159947     -0.11066724      0.51893688
C      -0.65895682      0.11291890      0.10831082
C       0.25871841     -0.81136298     -0.59202146
C       1.59201491     -0.21082952     -0.21727248
O       1.36444441      1.18397751      0.00447237
C       0.05855041      1.38751686      0.33462564
O      -0.42487820      2.43143059      0.72869544
H      -2.40381515     -1.06142668      0.34538477
H      -2.47592893      0.66181992      1.03593244
H       0.17473529     -1.85557328     -0.27994163
H       0.09711905     -0.74482075     -1.67353550
H       2.32964727     -0.33658581     -1.01585826
H       1.99994882     -0.64639751      0.70227098
