40
COP(=O)(OC)O/C(C)=C/C(=O)OC(C)c1ccccc1
C       4.04899292     -3.94302269     -0.14167716
O       4.39081623     -2.77943625      0.58281929
P       4.21173223     -1.37466213     -0.19103381
O       4.88869201     -1.31867846     -1.52575773
O       4.73979773     -0.30436497      0.89218228
C       6.13814180     -0.23314550      1.07606511
O       2.61088002     -1.16223673     -0.19636162
C       1.89232756     -0.07626738     -0.69667603
C       2.68981299      0.97538073     -1.41263176
C       0.56528322     -0.08718324     -0.49377955
C      -0.41603193      0.93185640     -0.92781165
O      -0.17478149      1.96094803     -1.53110802
O      -1.64122572      0.50487469     -0.53292873
C      -2.73787992      1.38241204     -0.84900920
C      -3.21179670      1.12596473     -2.27875077
C      -3.85450066      1.11762626      0.14485601
C      -4.26793658     -0.18948126      0.44861344
C      -5.30791204     -0.41603607      1.35217302
C      -5.94846400      0.66011088      1.96268464
C      -5.55076654      1.96303201      1.66994384
C      -4.51202883      2.19142936      0.76512242
H       4.15419669     -4.80953264      0.51596291
H       4.72063952     -4.06425937     -0.99572707
H       3.01343425     -3.88585688     -0.48783758
H       6.35031545      0.46902688      1.88624037
H       6.53943485     -1.21437681      1.34445880
H       6.61751600      0.12749534      0.16179107
H       3.47871725      1.36529952     -0.76272102
H       3.15237693      0.55044805     -2.30856252
H       2.10451176      1.83577701     -1.73565142
H       0.13160400     -0.92442069      0.04624638
H      -2.41735701      2.42696850     -0.74478435
H      -3.47529590      0.07273400     -2.42942467
H      -4.08470611      1.73890034     -2.52680918
H      -2.41765007      1.35250369     -2.99777115
H      -3.77611269     -1.04065503     -0.01724375
H      -5.61803104     -1.43274857      1.57945838
H      -6.75737918      0.48372327      2.66684146
H      -6.04969808      2.80311286      2.14652767
H      -4.21966890      3.21674008      0.54808759
