22
CCCOCC(C)O
C       1.91275664      0.34597495      2.48688131
C       2.03165229     -0.84364816      1.54477435
C       1.53072410     -0.52358035      0.14073830
O       0.13616595     -0.22597518      0.19464118
C      -0.38686460      0.08673128     -1.10403303
C      -1.88066796      0.38412652     -0.94593161
C      -2.53379424      0.73036619     -2.27215975
O      -2.53171571     -0.76910747     -0.40485514
H       2.30633503      0.08561334      3.47453990
H       0.86970329      0.65357211      2.61088809
H       2.48143069      1.20197709      2.10984093
H       1.45112405     -1.67521150      1.96093971
H       3.07921584     -1.16011485      1.49340092
H       2.07702331      0.33215977     -0.27243277
H       1.69018394     -1.39171818     -0.50880129
H       0.13822920      0.95619752     -1.51447201
H      -0.23793936     -0.77988765     -1.75861992
H      -2.02714318      1.19932681     -0.22862984
H      -2.44845433     -0.10092115     -2.98067505
H      -3.60441825      0.91567209     -2.13372436
H      -2.08021922      1.62034905     -2.71856481
H      -1.97332749     -1.04190223      0.35004550
