20
OCc1ccccc1CO
O       1.80839510     -1.96412804     -0.89741855
C       1.02476262     -1.75011523      0.26914550
C       0.54905955     -0.31862793      0.32574971
C       1.28628714      0.60955346      1.08179410
C       0.90054348      1.94797829      1.14580534
C      -0.22422954      2.37995988      0.45164399
C      -0.96050504      1.47521769     -0.31230292
C      -0.57937785      0.12461225     -0.39736153
C      -1.42615342     -0.81849406     -1.21722267
O      -2.35039077     -1.50420047     -0.38274916
H       2.06974305     -1.09340350     -1.24264784
H       1.64263035     -1.98759764      1.14202136
H       0.18882037     -2.45588465      0.27567651
H       2.17139820      0.29073525      1.62990989
H       1.47822828      2.65280959      1.73855008
H      -0.52889952      3.42222458      0.50375359
H      -1.83973894      1.83161189     -0.84655518
H      -1.99521123     -0.26868877     -1.97482188
H      -0.81478661     -1.54983087     -1.75418733
H      -2.40057522     -1.02373173      0.46121699
