20
CNc1ccccc1C(=O)O
C      -1.96359291     -2.05397996      0.09520578
N      -1.56120944     -0.67523465      0.31167058
C      -0.19715572     -0.33837202      0.20692676
C       0.80248814     -1.23672198      0.62091560
C       2.15713377     -0.88847371      0.60491436
C       2.54698720      0.38040427      0.19578336
C       1.58018339      1.30562153     -0.19021501
C       0.21505283      0.96219126     -0.17713469
C      -0.79083185      1.96800959     -0.61770102
O      -1.95333821      1.74551184     -0.91056518
O      -0.29817856      3.22060094     -0.67381270
H      -1.57006035     -2.44210471     -0.85013110
H      -1.64750496     -2.69929339      0.92045859
H      -3.05626329     -2.10429712      0.04825589
H      -2.14012542     -0.01853154     -0.22711888
H       0.54129188     -2.22656947      0.98413817
H       2.90389982     -1.61009004      0.92704901
H       3.59894790      0.65361120      0.18643273
H       1.89923450      2.29723665     -0.50251261
H      -1.06695872      3.76048130     -0.95255965
