34
Cc1cnc2c(ccc3c(C)c(C)cnc32)c1C
C      -4.86115032      1.52324652     -0.32946231
C      -3.39691810      1.21848851     -0.22426898
C      -2.50494593      2.25497238     -0.01237532
N      -1.17201870      2.10282099      0.09853634
C      -0.62127210      0.87071961      0.00294470
C      -1.44923708     -0.25877211     -0.21399023
C      -0.84459732     -1.52198065     -0.30812081
C       0.53263289     -1.67158301     -0.19260506
C       1.36877895     -0.56488118      0.02237510
C       2.78714910     -0.68912219      0.14496037
C       3.44233716     -2.04713910      0.04428919
C       3.56114371      0.46266663      0.35935006
C       5.05354417      0.44626077      0.50214764
C       2.88827537      1.66913149      0.43999215
N       1.55392503      1.80671345      0.32718150
C       0.77655480      0.71887968      0.12018997
C      -2.86184115     -0.07549816     -0.32886140
C      -3.76580461     -1.26415179     -0.56031413
H      -5.41615532      1.00689011      0.46027614
H      -5.24448977      1.22088083     -1.30924116
H      -5.05961151      2.59500415     -0.21910850
H      -2.84103345      3.28482593      0.07957796
H      -1.43571122     -2.41923954     -0.47399583
H       0.93787498     -2.67707196     -0.27490922
H       4.52887237     -2.01170400      0.15402608
H       3.06643152     -2.70605215      0.83413486
H       3.23815437     -2.49202888     -0.93535849
H       5.45503212      1.45285175      0.66280972
H       5.51955765      0.05162240     -0.40638591
H       5.34789277     -0.16234422      1.36313517
H       3.41639592      2.60511021      0.60443230
H      -3.67437162     -1.97382129      0.26874376
H      -3.50271833     -1.75980994     -1.50075871
H      -4.82267637     -0.99588524     -0.63039087
