10
ClC(Cl)=C=C(Cl)C(Cl)Cl
Cl      2.50209869     -0.01327518     -1.63505077
C       2.06140594      0.21906522     -0.00641626
Cl      3.19730467      0.55045170      1.21795538
C       0.80907973      0.13981256      0.31126785
C      -0.45605258      0.05515819      0.60544084
Cl     -0.82887429      0.30120534      2.27177908
C      -1.59754951     -0.22532453     -0.31883775
Cl     -1.71891722      1.03494334     -1.57323062
Cl     -1.41345807     -1.82511882     -1.08256040
H      -2.55503736     -0.23691782      0.20965264
