14
CCCCI
C      -1.97536607      0.17541781      0.10315106
C      -0.63244664     -0.52479229      0.23706614
C       0.52938193      0.44115314      0.00130311
C       1.87447998     -0.27108598      0.13787819
I       3.48780518      1.09214587     -0.19439851
H      -2.09898838      0.59857738     -0.89883859
H      -2.06967754      0.98597133      0.83283407
H      -2.79126212     -0.53345277      0.27554723
H      -0.55437914     -0.96388432      1.23848418
H      -0.58353389     -1.34919691     -0.48383551
H       0.46734923      1.26718009      0.72097798
H       0.43823449      0.88232487     -0.99927573
H       1.93962722     -1.09285110     -0.58397602
H       1.96877575     -0.70750712      1.13850722
