25
CCSC(=S)N[C@@H](CC(=O)O)C(=O)O
C       2.94176253      1.30521431     -0.89209528
C       3.49564707     -0.10044250     -1.04955728
S       2.28904722     -1.22357633     -1.81574687
C       1.12393442     -1.37637458     -0.52157468
S       1.37279291     -2.25738424      0.86898829
N      -0.00746628     -0.68969731     -0.85969420
C      -1.27363909     -0.60707655     -0.11018144
C      -1.20675736      0.47803264      0.96414700
C      -2.26881855      0.22674162      1.99123091
O      -3.22492330     -0.52268326      1.85194510
O      -2.09845580      0.95306327      3.10682441
C      -2.37180881     -0.26718826     -1.12934855
O      -2.13781971      0.21700730     -2.23081385
O      -3.63117551     -0.52556738     -0.71379279
H       2.61748902      1.71975279     -1.85251800
H       3.71802594      1.96619049     -0.49217202
H       2.09770271      1.33559304     -0.19592521
H       3.82694234     -0.49408816     -0.08400139
H       4.37423898     -0.06866114     -1.70216634
H      -0.01007558     -0.27280371     -1.79068546
H      -1.48014583     -1.60351846      0.29602450
H      -1.35864784      1.47587005      0.53808308
H      -0.23688451      0.46110567      1.47258516
H      -2.84367737      0.72339197      3.70169399
H      -3.70728759     -0.85290126      0.21522635
