15
O=C(O)c1ccc(F)cc1
O       2.56940835     -1.57096984     -0.08685586
C       2.06457990     -0.47088626      0.03834457
O       2.81724626      0.62717547      0.22581128
C       0.61157209     -0.17396895      0.00664699
C      -0.27969765     -1.24060006     -0.18341846
C      -1.65577741     -1.00524684     -0.21970165
C      -2.13365193      0.29167282     -0.06626651
F      -3.45330521      0.51630003     -0.10120887
C      -1.26254602      1.35947036      0.12295541
C       0.11489533      1.12887567      0.15995654
H       3.73620512      0.28550505      0.22483275
H       0.09560347     -2.25533840     -0.30339981
H      -2.35491536     -1.82271799     -0.36616764
H      -1.66021283      2.36282188      0.24026849
H       0.79059590      1.96790707      0.30820276
