66
CC1(C)CC2(CC(C)(C)N1)OC1(CCCCCCCCCCC1)NC2=O
C      -5.11050166      2.23231224     -0.31217480
C      -4.01990820      1.27403316      0.21211443
C      -3.28180394      1.99293389      1.35751444
C      -3.06274663      0.94475228     -0.94996335
C      -2.04287811     -0.13617669     -0.59697795
C      -2.53539871     -1.14026459      0.44657860
C      -4.07137488     -1.22067385      0.55718109
C      -4.71468926     -1.90402191     -0.66557184
C      -4.41932557     -2.07332947      1.79608647
N      -4.68552517      0.09357404      0.78207907
O      -0.84243896      0.51304665     -0.09268859
C       0.31439637      0.01684835     -0.78153851
C       1.16623210      1.23443736     -1.20246057
C       1.64756126      2.11762912     -0.03886020
C       2.91873203      2.92531033     -0.34843101
C       4.15757775      2.10063752     -0.73602475
C       4.55984054      1.03748420      0.29464821
C       5.49035390     -0.01683689     -0.31761489
C       5.64869275     -1.26911895      0.55501474
C       4.66165433     -2.41689208      0.26388228
C       3.21234574     -2.17094605      0.70123602
C       2.33663996     -1.57282452     -0.40818798
C       1.03708678     -0.98017237      0.15558358
N      -0.20124466     -0.64466050     -1.93030488
C      -1.54963767     -0.84251022     -1.84741620
O      -2.19908197     -1.49412298     -2.64664458
H      -5.80959308      2.52203872      0.48261730
H      -4.66831340      3.15233614     -0.71330609
H      -5.69679653      1.77013473     -1.11536216
H      -3.97515082      2.29556809      2.15045664
H      -2.51679355      1.36520344      1.82464729
H      -2.78620810      2.89949178      0.99279473
H      -2.53924553      1.85846486     -1.26510528
H      -3.65479757      0.63547825     -1.82145327
H      -2.13382665     -2.14042440      0.23435084
H      -2.11368651     -0.87458962      1.42638988
H      -4.26216774     -2.88560937     -0.84762438
H      -5.78972813     -2.06446068     -0.50878089
H      -4.61383757     -1.31959229     -1.58301868
H      -4.00682095     -3.08569145      1.70216314
H      -4.01153106     -1.63338804      2.71462158
H      -5.50466788     -2.16896862      1.92951062
H      -5.67611807      0.06565769      0.54044188
H       1.99914559      0.89597322     -1.82341227
H       0.56389942      1.87684392     -1.86122685
H       1.81484153      1.53706675      0.87168554
H       0.84382736      2.82166605      0.21551796
H       2.69992507      3.62920417     -1.16155637
H       3.16261474      3.53427796      0.53128671
H       5.00253231      2.78596545     -0.88174215
H       3.98630453      1.63646773     -1.71387639
H       3.67963807      0.54519693      0.70395233
H       5.05364264      1.52181343      1.14633190
H       6.47625470      0.44230138     -0.45728789
H       5.14905521     -0.31191486     -1.31548024
H       6.65460337     -1.66923136      0.36891654
H       5.62008228     -1.00388179      1.61950329
H       5.02463503     -3.29134471      0.82068883
H       4.70375576     -2.69029905     -0.79687782
H       3.20433652     -1.54635884      1.60047173
H       2.76455378     -3.12944190      0.99301362
H       2.09414627     -2.35251900     -1.13982443
H       2.89955326     -0.81831422     -0.95733680
H       0.36376443     -1.81023316      0.41083699
H       1.23257592     -0.48713798      1.11523434
H       0.35103723     -1.10819741     -2.63689455
