25
CCc1ccc(NC(C)=O)cc1
C      -4.04474331     -0.58999392      0.38997837
C      -3.27705337      0.31621189     -0.56023429
C      -1.79703496      0.29917414     -0.27787223
C      -0.96496864     -0.63754708     -0.90019226
C       0.40809034     -0.66757470     -0.62865059
C       0.97174264      0.23517332      0.27246904
N       2.34260892      0.27135756      0.60195171
C       3.35017048     -0.53670847      0.10711653
C       4.69573387     -0.19308085      0.69687239
O       3.24338335     -1.42622078     -0.72924406
C       0.13813364      1.16832708      0.90122425
C      -1.23376008      1.19967972      0.63120452
H      -3.71088771     -1.62964617      0.30427977
H      -3.91007939     -0.27889434      1.43149909
H      -5.11483334     -0.55757446      0.16202409
H      -3.65588646      1.34248194     -0.48074060
H      -3.45864701      0.00572920     -1.59642385
H      -1.37692584     -1.35711498     -1.60471088
H       1.00774266     -1.41390772     -1.14002638
H       2.61473243      0.97821357      1.27270933
H       5.12850881      0.64650756      0.14670365
H       5.35877448     -1.05952782      0.61823979
H       4.60398997      0.06775839      1.75518769
H       0.54049516      1.88515954      1.61184761
H      -1.85928663      1.93201737      1.13655437
