37
CCC1(C2=CC3CCC(C2)C3)C(=O)NC(=O)NC1=O
C       2.52254903     -2.63162078     -0.82340407
C       1.19014317     -1.94332244     -0.52747625
C       1.27729494     -0.40213995     -0.36503754
C      -0.14944228      0.14639613     -0.07250931
C      -0.58849211      0.52976806      1.14896476
C      -2.00189945      1.02124326      1.38293396
C      -2.94344554     -0.18612466      1.46169686
C      -3.24646347     -0.53485637     -0.00515997
C      -2.58076256      0.57803849     -0.83933564
C      -1.13539601      0.20535677     -1.24563280
C      -2.52451468      1.74631702      0.14247927
C       2.22692909     -0.05294827      0.79218399
O       2.40792710     -0.76830471      1.77743919
N       2.85145078      1.16306078      0.72139517
C       3.08405799      1.85030809     -0.42584582
O       3.94670234      2.72049004     -0.48565648
N       2.38731337      1.46967435     -1.52653602
C       1.77121225      0.25603368     -1.65919937
O       1.59768065     -0.21807828     -2.78153398
H       2.36393729     -3.70943592     -0.93529046
H       2.97013565     -2.26619147     -1.75190885
H       3.24514629     -2.48893169     -0.01536467
H       0.77155087     -2.39056568      0.38410404
H       0.50195971     -2.20554240     -1.34040507
H       0.03105001      0.45359411      2.03951493
H      -2.04509853      1.65119706      2.27606298
H      -2.51549383     -1.03720797      2.00251740
H      -3.87404529      0.09405554      1.97002781
H      -4.33139253     -0.53065692     -0.16247394
H      -2.88008973     -1.53201693     -0.27075140
H      -3.16898285      0.80916534     -1.73316533
H      -0.78438003      0.96514764     -1.95478709
H      -1.15510430     -0.75261901     -1.77575695
H      -1.87037294      2.55829445     -0.19354710
H      -3.52455274      2.15991680      0.32030552
H       3.47359227      1.37973581      1.48792779
H       2.69929609      1.89277002     -2.39011949
