17
Cc1cc(O)ccc1O
C      -1.86887679     -1.21159731      0.60840366
C      -0.65284233     -0.42523198      0.21300648
C       0.60387493     -1.04411097      0.14686240
C       1.72439850     -0.30217723     -0.22162521
O       2.96064174     -0.87319191     -0.29573009
C       1.61875002      1.04947572     -0.52698374
C       0.37477863      1.67581150     -0.46479709
C      -0.74949149      0.93685041     -0.09638149
O      -1.97560646      1.53687726     -0.03094371
H      -2.60740528     -1.19983577     -0.19967685
H      -1.62044775     -2.25767527      0.81631959
H      -2.31519536     -0.78969628      1.51469080
H       0.69607196     -2.09975082      0.38369593
H       2.88178354     -1.81149955     -0.05781139
H       2.50306214      1.61189571     -0.81226349
H       0.30295114      2.73154000     -0.70512588
H      -1.87644713      2.47231649     -0.27163992
