24
CCOC(=O)Cc1ccccc1
C       4.60867529     -0.14174036     -0.07305060
C       3.28746109      0.17938791      0.59798678
O       2.23056268     -0.18257095     -0.29936842
C       0.97528291      0.05788656      0.18829977
O       0.74144580      0.53804287      1.28805427
C      -0.04329729     -0.36521757     -0.84864338
C      -1.47889088     -0.15119600     -0.43232676
C      -2.17827676     -1.15488816      0.25261853
C      -3.50269187     -0.95252940      0.64415782
C      -4.13839889      0.25458291      0.36045948
C      -3.44965791      1.26239181     -0.31161638
C      -2.12517412      1.06288400     -0.70438566
H       4.66746855     -1.20732226     -0.31836766
H       5.44940061      0.11828215      0.57613560
H       4.70607404      0.40771500     -1.01523879
H       3.19594391     -0.39371047      1.52742073
H       3.23526329      1.25166799      0.81743151
H       0.11159111     -1.42798125     -1.07107195
H       0.15043576      0.19498422     -1.77145097
H      -1.69540666     -2.09981501      0.49115782
H      -4.03682156     -1.73519564      1.17641072
H      -5.16807560      0.41267163      0.66968168
H      -3.94242363      2.20730868     -0.52484526
H      -1.60048990      1.86436137     -1.21944889
