23
Cc1ncc2c(N)c(C#N)c(N)nc2n1
C       3.95369254     -0.94860348      0.91963660
C       2.62148608     -0.36955632      0.55999572
N       2.58951050      0.88679073      0.09955914
C       1.37509939      1.35639215     -0.23431089
C       0.19292647      0.63019569     -0.12640120
C      -1.10872001      1.10627975     -0.44697786
N      -1.28700712      2.39486919     -1.00497708
C      -2.16742352      0.18680268     -0.38890623
C      -3.49568921      0.55668305     -0.77098291
N      -4.55919251      0.89061328     -1.09691495
C      -1.90573069     -1.09843371      0.07493716
N      -2.90049661     -2.06088603      0.24298576
N      -0.67850629     -1.50046977      0.44766389
C       0.35951657     -0.67458303      0.33767717
N       1.54671936     -1.16200109      0.67625541
H       4.63386353     -0.16462765      1.26635716
H       4.39266630     -1.43470671      0.04360610
H       3.84866651     -1.68867416      1.71884748
H       1.38860677      2.37377835     -0.61269660
H      -2.24372985      2.74907150     -1.00382599
H      -0.64464914      3.10938550     -0.67424412
H      -3.46075504     -2.21984954     -0.58835851
H      -2.45085406     -2.91847039      0.56107477
