8
O=C(O)C(Br)Br
O       0.86444291     -1.33419582      0.65676389
C       0.51378551     -0.33794210      0.04337902
O       1.43275620      0.35364035     -0.67186731
C      -0.85681151      0.29016925     -0.01160867
Br     -1.09310652      1.31358205      1.61596599
Br     -2.17657986     -1.11097989     -0.24313254
H       2.26872003     -0.14037666     -0.52512560
H      -0.95320677      0.96610282     -0.86437480
