65
CN(C)CCCn1nc(-c2cnc3[nH]cc(C(=O)NC(C)(C)CO)c3n2)c2cc(OC(F)F)ccc21
C       8.19345382     -1.68510120      3.02086452
N       6.75301581     -1.84937012      2.80282193
C       6.25424654     -2.94565921      3.64197106
C       6.48699222     -2.09159807      1.37496836
C       5.00742312     -1.98510842      0.99379400
C       4.41546707     -0.62205352      1.34884693
N       3.05480931     -0.48134754      0.85271125
N       2.02442528     -0.74543695      1.68051153
C       0.92793210     -0.49332219      0.94327620
C      -0.42255095     -0.60889883      1.50216348
C      -0.65269725     -1.22638934      2.73156376
N      -1.88002210     -1.37242655      3.31093172
C      -2.83912776     -0.82534857      2.53722802
N      -4.17310110     -0.79666406      2.82099330
C      -4.84814286     -0.14742237      1.81021397
C      -3.92697826      0.25107113      0.84371745
C      -4.16549029      0.97604324     -0.40077766
O      -3.25281917      1.33081804     -1.14112461
N      -5.48765315      1.23944051     -0.69719790
C      -5.95542974      2.09420709     -1.81401825
C      -5.59555688      3.56187999     -1.52804122
C      -7.49000781      1.96388782     -1.86954168
C      -5.39779817      1.64097584     -3.19871631
O      -4.06464239      2.07440891     -3.44994683
C      -2.65490647     -0.19066728      1.31414466
N      -1.42182236     -0.07292846      0.76201807
C       1.28891857     -0.11323638     -0.39289178
C       0.58822517      0.22018090     -1.57622529
C       1.29918083      0.54817847     -2.73466992
O       0.75224570      0.87082872     -3.94526936
C      -0.66625059      0.93068721     -4.02601432
F      -1.17163912     -0.31757558     -3.86786184
F      -0.97128287      1.30964424     -5.29448993
C       2.69480751      0.55434174     -2.71164186
C       3.41425964      0.23166359     -1.55578889
C       2.67889575     -0.10478414     -0.41195527
H       8.76397376     -2.56392296      2.69440809
H       8.56064191     -0.80504283      2.47602865
H       8.40580625     -1.50490072      4.08314907
H       6.46752251     -2.74340913      4.69829318
H       6.70997049     -3.90836203      3.37540460
H       5.16630420     -3.04189204      3.56883688
H       6.87265245     -3.07280827      1.06787706
H       7.02720988     -1.34632127      0.77520320
H       4.92191939     -2.15307746     -0.08731259
H       4.42339791     -2.78482924      1.46467906
H       4.38319245     -0.46792467      2.43351095
H       5.00604313      0.19517776      0.91947557
H       0.17098416     -1.64122359      3.30618518
H      -4.57661997     -1.19438291      3.65867735
H      -5.92077110     -0.03020874      1.88366793
H      -6.16599559      1.02560693      0.01790229
H      -6.04346991      3.89790061     -0.58602458
H      -5.95419032      4.21832423     -2.33071230
H      -4.51231294      3.70835593     -1.43462351
H      -7.78964816      0.92747049     -2.06323684
H      -7.94947749      2.26450468     -0.92023467
H      -7.91522880      2.59184913     -2.66029468
H      -6.00699276      2.05929641     -4.00706923
H      -5.42695080      0.55037531     -3.29276796
H      -3.54254645      1.81173145     -2.65998087
H      -0.49499175      0.19479813     -1.55719044
H      -1.11351073      1.63997884     -3.32223816
H       3.23868554      0.81226602     -3.61888867
H       4.49802362      0.23775126     -1.55929183
