49
O=C(CCCN1CCC(O)(c2ccc(Cl)cc2)CC1)c1ccc(F)cc1
O      -4.45629675     -2.13942740      0.66734244
C      -3.98063525     -1.01220538      0.54497125
C      -2.77691484     -0.72854977     -0.33688648
C      -2.22447015     -2.00120212     -0.98265571
C      -1.07764249     -1.71962481     -1.96229945
N       0.04179336     -0.95285533     -1.38317771
C       0.78259761     -1.74846926     -0.38896692
C       1.91951347     -0.94005845      0.24114485
C       2.89014676     -0.38199273     -0.81279590
O       3.54849307     -1.49025371     -1.45300042
C       3.98461133      0.46101070     -0.14559718
C       4.90428779     -0.16775135      0.72050725
C       5.92254175      0.55287548      1.35066188
C       6.03984374      1.91909138      1.12434200
Cl      7.29187406      2.81212858      1.89438145
C       5.14877638      2.56565915      0.27375953
C       4.12932958      1.84201680     -0.35683122
C       2.08094896      0.34572119     -1.90011781
C       0.95800343     -0.53088338     -2.45665991
C      -4.60926709      0.12623448      1.28551954
C      -4.13707180      1.44267115      1.17903604
C      -4.76028816      2.47056096      1.89331253
C      -5.84915333      2.18327955      2.70868498
F      -6.44207336      3.17227451      3.38934267
C      -6.33074123      0.88582216      2.82546571
C      -5.71122424     -0.14378365      2.11369738
H      -3.08195877     -0.02794750     -1.12210325
H      -2.00138437     -0.26668575      0.28361904
H      -1.90662391     -2.70746835     -0.20682140
H      -3.02717450     -2.50675364     -1.53506608
H      -1.50581414     -1.14814871     -2.79663015
H      -0.72225008     -2.66852282     -2.38490669
H       1.17956687     -2.66815160     -0.83847048
H       0.11702198     -2.05203366      0.42631130
H       2.44410652     -1.60076054      0.94282271
H       1.49462454     -0.11793462      0.83309572
H       4.39614580     -1.16171102     -1.80083622
H       4.83195655     -1.23908144      0.90662012
H       6.61623053      0.04041851      2.01186087
H       5.23882504      3.63417322      0.09507903
H       3.45736595      2.39062902     -1.01153405
H       2.73542476      0.63606780     -2.73194685
H       1.62928353      1.26253780     -1.49982121
H       0.40834341      0.06466694     -3.19635518
H       1.37454960     -1.39697929     -2.98734868
H      -3.28855943      1.69645854      0.55014154
H      -4.40337882      3.49339793      1.81886308
H      -7.18202476      0.68147268      3.46721728
H      -6.09125888     -1.15993225      2.20853500
