38
Cc1ncc2n1-c1ccc(Cl)cc1C(c1ccccc1F)=NC2.Cl
C       3.83769265     -0.80668115     -1.22940367
C       3.20359331      0.48838059     -0.94239372
N       3.54245861      1.72983911     -1.41869142
C       2.64559359      2.66142452     -0.96228453
C       1.74222253      2.00940094     -0.19883365
N       2.12741967      0.69839655     -0.21691630
C       1.45126025     -0.31852026      0.50848402
C       2.31679133     -1.23445660      1.03709693
C       1.71533539     -2.22467266      1.82939817
C       0.34633916     -2.25189716      2.05190569
Cl     -0.38166130     -3.51381029      3.04990986
C      -0.47968678     -1.30283056      1.49909151
C       0.06500490     -0.32120713      0.71248216
C      -0.92747850      0.61319986      0.21636071
C      -2.24552829      0.12327830     -0.11817705
C      -3.20304278      1.15715828     -0.27975955
C      -4.46081935      0.90464607     -0.71949367
C      -4.82045692     -0.38219910     -1.01675739
C      -3.91574674     -1.40173949     -0.87272846
C      -2.62693536     -1.13269005     -0.42332630
F      -1.76892889     -2.15754211     -0.44134914
N      -0.65297324      1.88946301      0.13052996
C       0.56466691      2.63351322      0.45217438
Cl      0.69049398      0.00000000      0.00000000
H       4.83394111     -0.97753660     -0.83228876
H       3.15146520     -1.68127695     -1.26189529
H       4.07048116     -0.73298770     -2.35659052
H       2.71513127      3.70720951     -1.21121121
H       3.35979851     -1.15288332      0.90171411
H       2.37418393     -2.96191123      2.25504693
H      -1.54587819     -1.24669410      1.70072401
H      -2.95070801      2.18573103     -0.05301237
H      -5.21393455      1.67509495     -0.85264500
H      -5.83213301     -0.62810067     -1.37440250
H      -4.23801064     -2.40457458     -1.11784054
H       0.44054384      3.63856022      0.02957420
H       0.75999925      2.71891557      1.52550839
H      -0.69049398      0.00000000      0.00000000
