32
Cc1noc(C)c1N=C1C=C(O)C(=O)c2ccccc21
C      -2.49050384      2.28162113      1.52486179
C      -2.90211433      0.99293451      0.92955562
N      -4.05924493      0.41297300      1.28070914
O      -4.14679512     -0.74567588      0.52095425
C      -3.04178393     -0.86050410     -0.26887984
C      -2.98783638     -2.02977337     -1.15926142
C      -2.21519876      0.19984440     -0.01217209
N      -0.99287277      0.48323430     -0.61955832
C       0.07430592      0.01643780     -0.04216799
C       0.13489293     -0.79543574      1.21059243
C       1.28269171     -1.23311116      1.72893839
O       1.29543627     -1.98312271      2.89119229
C       2.58854202     -0.94280896      1.09536409
O       3.61413550     -1.37104110      1.61541859
C       2.58998589     -0.14610843     -0.13982801
C       3.81468203      0.14338115     -0.75876693
C       3.84343602      0.89713523     -1.93135191
C       2.65333420      1.36161276     -2.48633065
C       1.43320440      1.07307461     -1.86954433
C       1.39194496      0.31499329     -0.68820050
H      -1.69352429      2.12347664      2.25838569
H      -3.32591479      2.77630083      2.03105226
H      -2.11716494      2.96238562      0.75307350
H      -3.88229854     -2.07650417     -1.78798720
H      -2.92886718     -2.95274283     -0.57438458
H      -2.11411068     -1.98816429     -1.81679620
H      -0.79109755     -1.03845181      1.71849318
H       2.24318593     -2.17687869      3.06061526
H       4.74814286     -0.21714867     -0.32949914
H       4.79341182      1.12164724     -2.41140290
H       2.67214228      1.94993441     -3.40134915
H       0.51585329      1.44648500     -2.32172531
