32
CCCCCCCC(C(=O)O)C(=O)O
C      -5.16483881     -0.90519224      0.12805760
C      -3.71796590     -1.07423027     -0.30721796
C      -2.87994138      0.15462756      0.04500204
C      -1.42447580     -0.01929880     -0.39524410
C      -0.58718598      1.21057777     -0.03734313
C       0.85118643      1.14405558     -0.56037753
C       1.68518200      0.03363845      0.09084020
C       3.15257094      0.06257237     -0.36984614
C       3.89761229      1.22836064      0.22522365
O       3.60001806      1.86849669      1.22023147
O       4.99606713      1.55786622     -0.48644001
C       3.82596859     -1.23235453     -0.01010307
O       4.65130455     -1.42375283      0.86663998
O       3.41727473     -2.26104141     -0.78442546
H      -5.62456408     -0.04255628     -0.36473700
H      -5.23437523     -0.76011610      1.21085642
H      -5.74574906     -1.79518522     -0.13341245
H      -3.29813661     -1.96306422      0.17798294
H      -3.68596787     -1.24929881     -1.38889448
H      -2.91791642      0.32760055      1.12747219
H      -3.30736791      1.04114272     -0.43920212
H      -1.00948292     -0.91053741      0.08833574
H      -1.38643924     -0.18797436     -1.47815485
H      -0.57649274      1.34801422      1.05077063
H      -1.06303844      2.10284818     -0.46306644
H       1.32200777      2.11613059     -0.37249066
H       0.83944396      1.00563405     -1.64836980
H       1.62939019      0.12221565      1.18344074
H       1.24392695     -0.93758328     -0.16155297
H       3.18979257      0.17316910     -1.46149131
H       5.39644358      2.29525029      0.02214639
H       3.92574867     -3.03001486     -0.44877087
