23
Clc1ccc(Oc2c(Cl)cccc2Cl)c(Cl)c1Cl
Cl      5.00426052      1.71514893      0.31472190
C       3.55509319      0.76963479      0.28107765
C       2.49141666      1.26805515     -0.47685480
C       1.29045583      0.56419026     -0.55206131
C       1.14268056     -0.64050528      0.14387048
O      -0.01843950     -1.38987982      0.08720882
C      -1.21609966     -0.71321116      0.02325166
C      -1.74572468     -0.04278939      1.13423406
Cl     -0.92530493      0.00984735      2.65303626
C      -2.98540573      0.59780296      1.04137471
C      -3.71018925      0.55674205     -0.15017320
C      -3.20077075     -0.13297411     -1.24997512
C      -1.96229463     -0.77372292     -1.16118451
Cl     -1.37556432     -1.61493717     -2.55072967
C       2.21817019     -1.15799012      0.89063340
Cl      2.01275185     -2.67490520      1.71568426
C       3.42927255     -0.44797928      0.96752981
Cl      4.76118536     -1.06565049      1.89765221
H       2.59522237      2.20623816     -1.01874590
H       0.48972808      0.96534046     -1.16751593
H      -3.39795201      1.12247944      1.90070818
H      -4.67664255      1.05182611     -0.21710818
H      -3.77584917     -0.17276071     -2.17249951
