18
O=Cc1ccc(B(O)O)cc1
O       3.79319861     -0.27522165      1.43462132
C       3.22633241     -0.36362330      0.34367991
C       1.77842374     -0.21742758      0.15788484
C       1.20023123     -0.32661050     -1.08813632
C      -0.15093616     -0.19626329     -1.30402481
C      -0.99988302      0.05663438     -0.24378383
B      -2.54380942      0.21017833     -0.45840973
O      -3.41969881     -0.79388440      0.13015687
O      -3.11610239      1.51460311     -0.77746544
C      -0.42826623      0.16771412      1.01000879
C       0.93026149      0.03493739      1.21504440
H       3.82750728     -0.56119473     -0.53608088
H       1.84450226     -0.52410838     -1.93176300
H      -0.61194199     -0.28051172     -2.27788014
H      -3.11908504     -1.12631603      0.99838043
H      -2.51566774      2.19295938     -0.36935859
H      -1.07228249      0.36629986      1.86144542
H       1.37721627      0.12183501      2.19569199
