6
C=CF
C      -0.69109981     -0.01530954      0.15033496
C       0.59848100      0.10208122     -0.15482541
F       1.44162610     -0.93952112     -0.04413482
H      -1.36631069      0.82733796      0.05933158
H      -1.08861715     -0.96264363      0.49713540
H       1.10592055      0.98805511     -0.50784171
