28
NC12CC3CC(CC(C3)C1)C2
N       2.69833886      0.14993788      0.56863301
C       1.27030450      0.05797848      0.27022666
C       1.04377359     -0.93144838     -0.89377516
C      -0.45923245     -1.04303057     -1.20853487
C      -1.20267977     -1.54150057      0.04242677
C      -0.99522425     -0.55836335      1.20711327
C      -1.53204953      0.82546753      0.80338827
C      -0.79067914      1.33676126     -0.44364159
C      -0.99889536      0.34336564     -1.59947300
C       0.71312829      1.44239261     -0.13116538
C       0.50927066     -0.44812776      1.51516287
H       2.85282084      0.82341801      1.31811785
H       3.19917560      0.51022831     -0.24285962
H       1.43949936     -1.92317649     -0.63737212
H       1.58232812     -0.59958008     -1.79137663
H      -0.61258114     -1.74617670     -2.03474762
H      -0.83790207     -2.53718458      0.32313554
H      -2.27306079     -1.64408355     -0.17449080
H      -1.52870715     -0.91777581      2.09411745
H      -2.60825905      0.76450193      0.60003909
H      -1.40417613      1.53315370      1.63168578
H      -1.17922080      2.32118525     -0.72736381
H      -2.06565054      0.27385065     -1.84543176
H      -0.48736599      0.70413224     -2.50026890
H       0.86962350      2.16878121      0.67727509
H       1.24413329      1.83013323     -1.01059593
H       0.66066512      0.23382707      2.36244290
H       0.89262243     -1.42866715      1.82733264
