35
CCCCOC(=O)Oc1ccc(NC(C)=O)cc1
C      -6.13638067      2.03498738     -0.33443747
C      -6.12606534      0.54010827     -0.05519834
C      -4.89975142     -0.17549810     -0.61896206
C      -3.58781847      0.25468211      0.03001269
O      -2.53895313     -0.55426592     -0.51716267
C      -1.30457468     -0.27784321     -0.01621879
O      -1.06284944      0.56937357      0.83225369
O      -0.39840699     -1.12272695     -0.63451882
C       0.92112363     -0.94013260     -0.21801280
C       1.81986861     -0.36208040     -1.10849928
C       3.15877898     -0.21010208     -0.73479101
C       3.59994948     -0.64626407      0.51806807
N       4.92994061     -0.52460136      0.97121612
C       6.00831169      0.00716014      0.28732321
C       7.27553256     -0.02895234      1.10535919
O       6.01492669      0.44687994     -0.85666054
C       2.68018849     -1.24489477      1.39320892
C       1.34171047     -1.40230567      1.02536635
H      -5.32243987      2.54619692      0.18788089
H      -7.07812401      2.47467292      0.00955562
H      -6.04066791      2.23533987     -1.40623733
H      -6.19262817      0.37068545      1.02576645
H      -7.02382212      0.09586927     -0.50133124
H      -4.83805677     -0.02322807     -1.70386266
H      -5.02453223     -1.25726624     -0.48188163
H      -3.37851167      1.30765943     -0.18746677
H      -3.63788388      0.10379162      1.11467914
H       1.49027893     -0.02719050     -2.08767054
H       3.83294080      0.25391563     -1.44791961
H       5.11137956     -0.87339375      1.90370855
H       7.96659002      0.73533135      0.73815897
H       7.73954853     -1.01414271      1.01070810
H       7.06788443      0.18083367      2.15861493
H       2.99191402     -1.59896642      2.37226141
H       0.64059925     -1.87363237      1.70725956
