46
C[N+](C)(C)c1ccc2ccc(O)c(N=Nc3ccc(N)cc3)c2c1.[Cl-]
C      -1.78180062      2.81623554      0.35233120
N      -2.79962282      1.88155432     -0.29752844
C      -4.18996201      2.45877473     -0.05187461
C      -2.58270778      1.80471294     -1.80694239
C      -2.63415728      0.49004551      0.29261496
C      -3.66114207     -0.16510511      0.97598943
C      -3.46270767     -1.44716667      1.50384791
C      -2.23552511     -2.10846668      1.36422856
C      -2.04871785     -3.39547352      1.89400222
C      -0.83003704     -4.05599264      1.75209440
C       0.21066662     -3.42971581      1.08267720
O       1.38865863     -4.11728706      0.96873488
C       0.06341183     -2.14135712      0.54420841
N       1.12227983     -1.54339851     -0.17593156
N       2.04029543     -1.20141712      0.59994001
C       3.07500721     -0.51541374     -0.06995911
C       3.50358982     -0.82941183     -1.36650924
C       4.53599077     -0.10474994     -1.97334860
C       5.19727793      0.91094499     -1.28124207
N       6.13437633      1.71516306     -1.93527183
C       4.74806677      1.25019134     -0.00430924
C       3.71542775      0.52833599      0.60443027
C      -1.17807654     -1.46891421      0.67817866
C      -1.40478057     -0.17460066      0.15283344
Cl      0.00000000      0.00000000      0.00000000
H      -1.95455636      3.82712609     -0.03071829
H      -0.76877577      2.50133005      0.08711152
H      -1.92795198      2.79342350      1.43703385
H      -4.93553331      1.81668935     -0.53164007
H      -4.35816180      2.54411383      1.02645817
H      -4.23105170      3.45627488     -0.50257339
H      -2.76752534      2.79795885     -2.22858263
H      -1.55008698      1.51276407     -2.01717834
H      -3.28787020      1.07954935     -2.22569683
H      -4.64191101      0.27125999      1.13080292
H      -4.28532309     -1.93148891      2.03121571
H      -2.85392930     -3.90253316      2.42401416
H      -0.69209890     -5.05347398      2.16211472
H       2.04067783     -3.50294845      0.58017472
H       3.03283519     -1.63617640     -1.92232111
H       4.82426242     -0.34827041     -2.99316831
H       6.77840722      2.19395330     -1.31185249
H       6.62542950      1.24820441     -2.69271869
H       5.20480881      2.07731344      0.53364281
H       3.40430934      0.79182146      1.61225951
H      -0.58176615      0.30562090     -0.37157241
