29
O=C(O)c1ccc(P(=O)(O)c2ccccc2)cc1
O       5.05868707      1.93484198      0.82258026
C       4.47290768      1.45558351     -0.13051811
O       4.93589743      1.61085922     -1.38360298
C       3.21885857      0.66629420     -0.07300989
C       2.60983437      0.15279847     -1.22349956
C       1.42719153     -0.58590785     -1.12011143
C       0.83550219     -0.82109195      0.12925016
P      -0.67558362     -1.74305242      0.29148418
O      -0.72046917     -2.71355419      1.44270252
O      -0.78499883     -2.61941843     -1.07170990
C      -2.06860737     -0.64440739      0.18544918
C      -2.89239518     -0.44552927      1.30244719
C      -3.98643196      0.41786154      1.23403158
C      -4.26889438      1.09138739      0.04726163
C      -3.46006753      0.90146255     -1.07159248
C      -2.36616611      0.03760691     -1.00325905
C       1.45639288     -0.30638236      1.27695393
C       2.63821787      0.43264830      1.17856748
H       5.75348861      2.13865028     -1.26610138
H       3.04833620      0.31779078     -2.20487450
H       0.96818710     -0.98736067     -2.02187235
H      -1.47960252     -3.30084489     -0.98471010
H      -2.67975570     -0.97118970      2.23237866
H      -4.61847026      0.56443170      2.10648340
H      -5.12096466      1.76450428     -0.00570017
H      -3.68186675      1.42673130     -1.99730976
H      -1.74237174     -0.10597807     -1.88313708
H       1.01800906     -0.49019976      2.25697047
H       3.10513520      0.82146454      2.08181800
