13
CC1=CCC(=O)O1
C       2.03247322     -0.24123149      0.21058489
C       0.55375575     -0.13567078      0.10277924
C      -0.15313845      0.79799732     -0.52208458
C      -1.58920002      0.49351821     -0.36258050
C      -1.50035858     -0.77088273      0.46055946
O      -2.46945482     -1.41051144      0.85002912
O      -0.19834467     -1.12770582      0.72677491
H       2.37916346     -1.18190517     -0.22835509
H       2.53393787      0.58102994     -0.30985883
H       2.33960707     -0.21530018      1.26069217
H       0.24562387      1.64436485     -1.06090702
H      -2.06685804      0.29014214     -1.32328739
H      -2.10720666      1.27615516      0.19565363
