31
NC(=O)NN=CCOC1CCCCC1
N       6.37729169      0.68748096      0.24785279
C       5.12986234      0.36551457     -0.20549477
O       4.73455479      0.77647263     -1.28810715
N       4.44392265     -0.42828577      0.69685189
N       3.20610532     -0.96814924      0.43872254
C       2.32534656     -0.17449650     -0.08739779
C       0.95911014     -0.68352444     -0.46943946
O       0.00208914      0.07455240      0.26227210
C      -1.32412905     -0.45715720      0.19083239
C      -1.94978016     -0.21363029     -1.18755391
C      -3.42022424     -0.61963714     -1.22614664
C      -4.22494064      0.06360161     -0.12513094
C      -3.61030854     -0.17837648      1.24973010
C      -2.14354800      0.23510011      1.28482437
H       6.83832876      1.36602456     -0.34674816
H       6.44846046      0.89043147      1.23521728
H       5.04371641     -1.06012922      1.21634664
H       2.51388009      0.89582873     -0.28219723
H       0.82837984     -0.51716908     -1.54228516
H       0.88171080     -1.75004562     -0.23470500
H      -1.29646354     -1.53345188      0.40604743
H      -1.40439954     -0.77151071     -1.95698147
H      -1.84604861      0.84551292     -1.45659511
H      -3.84632785     -0.36810709     -2.20390536
H      -3.49971780     -1.70797005     -1.11370465
H      -4.26808556      1.14212420     -0.32087627
H      -5.25669660     -0.30522317     -0.13861691
H      -4.17002445      0.38117612      2.00757524
H      -3.69678528     -1.24101892      1.50761440
H      -1.71386586      0.00499397      2.26751025
H      -2.06141325      1.32454572      1.17448856
