26
CCOCCOCCOC
C      -3.97171311     -1.36110990      0.10661324
C      -3.49249070      0.05951602      0.32899406
O      -2.14891104      0.15929434     -0.13503705
C      -1.62942739      1.48410223      0.02880212
C      -0.16273619      1.50557584     -0.39882045
O       0.63795565      0.90982419      0.62882303
C       2.00204743      0.74580469      0.24394501
C       2.22155689     -0.55780306     -0.52731488
O       3.58726555     -0.72676062     -0.91142976
C       4.38962807     -1.27187874      0.12779815
H      -3.33364130     -2.07160570      0.64251137
H      -5.00266641     -1.48354747      0.45018430
H      -3.91924461     -1.62398042     -0.95510956
H      -3.53469686      0.30330658      1.39617115
H      -4.12854288      0.75846020     -0.22511461
H      -1.72415988      1.78565316      1.07805971
H      -2.20709714      2.16465830     -0.60594459
H       0.16574301      2.54207699     -0.53066226
H      -0.03934446      0.95896021     -1.33909963
H       2.59067665      0.72821617      1.16665329
H       2.35961248      1.61082059     -0.32795973
H       1.86194216     -1.42197960      0.04461183
H       1.63340395     -0.54180416     -1.45035036
H       4.43170797     -0.59693882      0.98664911
H       4.00836226     -2.25065243      0.43438238
H       5.40476990     -1.40152754     -0.25735588
