22
CCOC(C)CCO
C       2.70969747      1.13881685      0.68141257
C       1.78465236      0.45029499     -0.30291592
O       0.80794351     -0.27798175      0.43776566
C      -0.10855458     -1.00696084     -0.38406801
C      -0.68341156     -2.13090941      0.47340204
C      -1.20519365     -0.09450717     -0.94692383
C      -1.95373702      0.70474693      0.11365785
O      -2.92281318      1.53622646     -0.51880291
H       2.14575306      1.81734362      1.33005959
H       3.19484014      0.40466033      1.33314743
H       3.48104451      1.71046977      0.15782803
H       2.36003989     -0.23636062     -0.93313885
H       1.30028893      1.20014154     -0.93556570
H       0.43478380     -1.47093661     -1.21721247
H      -1.43111979     -2.71067965     -0.07606205
H       0.11781001     -2.80982767      0.78648844
H      -1.13472475     -1.74729277      1.39419449
H      -1.92134921     -0.68580487     -1.53152383
H      -0.76593918      0.61308706     -1.66074882
H      -1.28178692      1.34254605      0.69617478
H      -2.48960920      0.04680367      0.80300378
H      -2.43861464      2.20612408     -1.03090571
