29
CCNc1nc(=O)nc(NC(C)C)[nH]1
C       5.15724508     -0.05210354      0.42655343
C       3.95055968     -0.77997784     -0.14022099
N       2.72835080     -0.09796199      0.26802070
C       1.51967914     -0.50001862     -0.23247656
N       1.36036814     -1.40638751     -1.13646254
C       0.05343897     -1.66414596     -1.51885320
O      -0.15202187     -2.58384775     -2.30394966
N      -1.03267447     -0.93469151     -1.06240145
C      -0.78487685     -0.04628470     -0.16031233
N      -1.71846268      0.77773524      0.40684985
C      -3.14318253      0.63730424      0.10881886
C      -3.74639527     -0.48629522      0.94749689
C      -3.83537930      1.96436237      0.41127229
N       0.46930221      0.16315613      0.30845780
H       5.12701500     -0.03283770      1.52115453
H       6.08213868     -0.54947762      0.11877940
H       5.19096763      0.98444017      0.07464154
H       3.93888318     -1.81347227      0.22328314
H       4.02538357     -0.80056109     -1.23329347
H       2.71141100      0.10689299      1.26067616
H      -1.54011624      1.01982717      1.37449245
H      -3.28694702      0.41689268     -0.95576143
H      -3.27014542     -1.44654858      0.72325860
H      -3.61695851     -0.29759517      2.01916669
H      -4.81801955     -0.58879967      0.74709711
H      -3.72558478      2.24253772      1.46555249
H      -3.40356342      2.77236761     -0.18958389
H      -4.90486414      1.90743614      0.18341380
H       0.66444897      1.08805426      0.65708074
