48
C=CCC1=C(C)C(OC(=O)C2C(C=C(C)C)C2(C)C)CC1=O
C       6.59915810      0.43010180     -1.67025908
C       5.33868490      0.78266911     -1.95512942
C       4.15820044     -0.13918634     -1.83163775
C       3.24898781      0.27437372     -0.73079949
C       2.18234460      1.08714635     -0.70299481
C       1.62687015      1.87010161     -1.84568941
C       1.51942494      1.19019099      0.64491477
O       0.20413175      0.63827383      0.52201146
C      -0.62117173      0.90987561      1.56626932
O      -0.33137295      1.57191648      2.55143553
C      -1.96976285      0.32469312      1.38932200
C      -2.19021013     -0.99418104      0.67765005
C      -3.34945691     -1.15076985     -0.21344012
C      -3.54189837     -0.58860671     -1.42265503
C      -2.55695454      0.32736235     -2.09233971
C      -4.79349308     -0.85460916     -2.21471651
C      -2.38784309     -0.90453886      2.18486401
C      -3.76929837     -0.87784907      2.79486156
C      -1.37321350     -1.61777401      3.04757707
C       2.38840591      0.35324676      1.57915026
C       3.37954137     -0.25942266      0.63838963
O       4.21244445     -1.09392479      0.96165792
H       6.84284255     -0.56515107     -1.30851729
H       7.41534798      1.13733705     -1.77916445
H       5.14149443      1.79324305     -2.30620776
H       3.62000084     -0.14096199     -2.78700683
H       4.48351104     -1.17593985     -1.68112250
H       2.23039772      1.76733340     -2.75215134
H       1.59225352      2.93459684     -1.59256712
H       0.61170917      1.53754479     -2.08171082
H       1.47406127      2.23890035      0.96479684
H      -2.72491150      1.09253119      1.24743591
H      -1.31222663     -1.53129854      0.32678188
H      -4.12347458     -1.82321219      0.15661697
H      -2.99454435      1.32244424     -2.22225631
H      -1.62993482      0.44167187     -1.52634243
H      -2.28745959     -0.06408238     -3.07893716
H      -4.54401258     -1.32187380     -3.17293843
H      -5.32308224      0.08323308     -2.41177782
H      -5.48433187     -1.52200391     -1.68889149
H      -4.17190245     -1.89352636      2.86741087
H      -4.47416411     -0.27340451      2.21438618
H      -3.72860413     -0.45304867      3.80358696
H      -1.23824053     -1.08597165      3.99515370
H      -0.39513881     -1.69834117      2.56206331
H      -1.71446978     -2.63439954      3.26968149
H       2.92839694      0.98534023      2.29072922
H       1.83296362     -0.43004966      2.10128896
