41
CCCN(CCC)c1c([N+](=O)[O-])cc(S(N)(=O)=O)cc1[N+](=O)[O-]
C      -3.29440339      3.44968809      0.24200731
C      -2.74970039      2.15644202     -0.34336343
C      -1.69385685      1.53056571      0.57176555
N      -1.14035518      0.30523196     -0.05078093
C      -1.94536231     -0.92088101      0.15291925
C      -1.59257156     -2.00937282     -0.86342287
C      -2.48363162     -3.23076254     -0.69885385
C       0.25616359      0.19697403      0.06464825
C       1.07006553      0.49712896     -1.05129559
N       0.45781589      0.94282500     -2.28609253
O       0.27871276      0.08558126     -3.16188446
O       0.24057669      2.15702823     -2.39620206
C       2.47012352      0.38534588     -1.05688963
C       3.10920456     -0.04576067      0.10184708
S       4.87363272     -0.17612779      0.13707260
N       5.09901058     -1.76753973     -0.33418231
O       5.41828567      0.64493174     -0.91620863
O       5.31322503     -0.08801300      1.50812143
C       2.37097424     -0.32643679      1.25064203
C       0.96888849     -0.19884705      1.21532981
N       0.28812281     -0.48051606      2.46067952
O       0.22957329     -1.66824002      2.80564833
O      -0.14025307      0.48566910      3.10379966
H      -3.76270457      3.27259891      1.21546280
H      -2.49678247      4.18795054      0.37270262
H      -4.04843462      3.87948181     -0.42479525
H      -3.58090654      1.46079134     -0.50261351
H      -2.31909432      2.36095426     -1.32983798
H      -0.90289899      2.27193187      0.74807627
H      -2.13937209      1.29246676      1.54517220
H      -3.00578162     -0.67261882      0.02482748
H      -1.84877661     -1.29909065      1.17473399
H      -1.70394115     -1.61796200     -1.88128039
H      -0.54760816     -2.31952121     -0.75102729
H      -2.21625273     -3.99653380     -1.43370808
H      -3.53683031     -2.97158655     -0.84675515
H      -2.37268734     -3.66461953      0.30005171
H       3.04059247      0.62905056     -1.95217861
H       5.61376413     -1.80389007     -1.21615195
H       5.55032518     -2.29636800      0.41454258
H       2.87314875     -0.63794994      2.16656822
