28
Nc1ccn(C2CC(F)C(CO)O2)c(=O)n1
N      -4.73150214      0.22431670      0.61701968
C      -3.38664473      0.40380258      0.44506490
C      -2.45007738     -0.65738771      0.85930873
C      -1.15705755     -0.39091938      0.68638473
N      -0.74228563      0.80885501      0.15410954
C       0.66281734      1.10215834     -0.09302682
C       1.09960073      0.80788094     -1.52882801
C       1.84039631     -0.49475827     -1.39615224
F       0.93895041     -1.51372931     -1.39364349
C       2.47310718     -0.36309265     -0.02768365
C       2.81920645     -1.69510347      0.62200079
O       3.44536385     -1.46014623      1.88381701
O       1.51301194      0.33982294      0.79193562
C      -1.66746112      1.76705501     -0.27796823
O      -1.29079908      2.80314209     -0.82421657
N      -3.00595709      1.52493171     -0.08077587
H      -5.24404575      1.09437681      0.50469183
H      -5.02035807     -0.29990226      1.43336858
H      -2.81973630     -1.58873849      1.26140819
H      -0.39880874     -1.11815934      0.95520791
H       0.83726311      2.16049558      0.13574939
H       1.79464874      1.58895015     -1.85973062
H       0.26900235      0.75991550     -2.23877981
H       2.56064034     -0.68102327     -2.19660846
H       3.36191192      0.27882384     -0.07067556
H       1.92397992     -2.29575026      0.81113604
H       3.51025057     -2.27208892      0.00082010
H       2.86458241     -0.83372766      2.35792248
