60
CC(C)Oc1ccc(S(C)(=O)=O)cc1C(=O)N1Cc2ccc(C3CCOCC3)cc2C1
C      -4.09154428     -2.64030127     -1.08387869
C      -3.95910111     -2.36001969      0.41046862
C      -3.62910562     -3.64198490      1.16991344
O      -2.86619805     -1.45162919      0.62787431
C      -3.25104556     -0.14077333      0.70074608
C      -4.01378069      0.30753325      1.78358148
C      -4.38972444      1.64989581      1.86700577
C      -3.99216268      2.54166050      0.86581335
S      -4.45409416      4.25455123      0.96584807
C      -5.76101431      4.40532248     -0.22580635
O      -3.31691815      5.02745435      0.50549575
O      -5.02100072      4.47730046      2.28236634
C      -3.19139746      2.11649170     -0.19605618
C      -2.80587854      0.77345624     -0.26119957
C      -1.99022972      0.35529665     -1.41595110
O      -2.50994725      0.40532794     -2.52853656
N      -0.68240728     -0.01085494     -1.19742059
C       0.17193973     -0.38933803     -2.31796321
C       1.51132445     -0.58737779     -1.68539316
C       2.70333364     -0.95919454     -2.27623803
C       3.84057353     -1.08600009     -1.46749663
C       3.79618703     -0.83517127     -0.07846834
C       5.00613055     -0.97654799      0.84645289
C       6.27813927     -1.60391721      0.24275494
C       7.12435039     -0.60394656     -0.54174860
O       7.40501326      0.55553999      0.23631899
C       6.21234505      1.23992682      0.61447685
C       5.37369535      0.35686999      1.52693473
C       2.55959619     -0.47128061      0.49501845
C       1.43973097     -0.34637539     -0.31277521
C       0.04373562      0.02383355      0.07482779
H      -3.13878248     -2.97651065     -1.50969991
H      -4.37387357     -1.72910454     -1.62178415
H      -4.85401635     -3.40158001     -1.27998275
H      -4.91110444     -1.96738405      0.79164285
H      -2.68177024     -4.07395677      0.82402683
H      -3.50637644     -3.43044164      2.23968221
H      -4.41988967     -4.38924201      1.05159846
H      -4.30952438     -0.38333182      2.56962618
H      -4.98087350      1.98940327      2.71588640
H      -5.37410417      4.16204562     -1.21722835
H      -6.11321999      5.43937976     -0.20906271
H      -6.57353751      3.73100798      0.05047201
H      -2.85819857      2.81336448     -0.96335175
H       0.18345567      0.41933670     -3.05587662
H      -0.21278769     -1.31249421     -2.76319651
H       2.76232516     -1.15626642     -3.34255342
H       4.75973372     -1.39546443     -1.95588708
H       4.67290158     -1.66965277      1.63308550
H       6.04911142     -2.48391531     -0.36946966
H       6.89171401     -1.96247636      1.08158915
H       6.64830851     -0.29739638     -1.47733906
H       8.08209980     -1.06395670     -0.80543262
H       6.50897397      2.14695123      1.14970916
H       5.66000935      1.55036413     -0.27876137
H       4.49275118      0.90751537      1.87290006
H       5.97139406      0.12341089      2.41803544
H       2.47329327     -0.29562627      1.56435040
H      -0.37943122     -0.71159563      0.76305750
H      -0.00912652      1.03186838      0.49699817
