34
O=[N+](O)OCCCCCCCCO[N+](=O)O
O       5.28287236      0.26482898      1.90412180
N       5.94071230      0.25795851      0.65016488
O       7.11584741      1.02383040      0.53729750
O       5.46673071     -0.48026549     -0.47231359
C       4.27455080     -1.19230006     -0.16006621
C       3.05388411     -0.28685768     -0.30920880
C       1.75609061     -1.04234995     -0.02983899
C       0.54013123     -0.12396228     -0.15933294
C      -0.75988983     -0.88146258      0.11665277
C      -1.97671223      0.03889718      0.00038120
C      -3.27622090     -0.72229666      0.27916087
C      -4.50912807      0.16806044      0.13912080
O      -4.46422387      1.18850333      1.13191462
N      -5.60570223      2.03431445      1.01572133
O      -6.59885449      1.83115770      0.02739234
O      -5.73563091      3.10312694      1.92631189
H       7.13391345      1.36936172      1.44472215
H       4.33192828     -1.65869935      0.83037913
H       4.20267844     -2.01369221     -0.88188689
H       3.13924508      0.57171390      0.36725276
H       3.03845519      0.13150756     -1.32315819
H       1.66065124     -1.87995420     -0.73141900
H       1.78852149     -1.46704899      0.98080863
H       0.50771066      0.30628320     -1.16798508
H       0.63500552      0.71119431      0.54559244
H      -0.85812237     -1.71241374     -0.59268824
H      -0.72477233     -1.31685585      1.12268402
H      -2.01437171      0.47192037     -1.00636862
H      -1.87240834      0.87010762      0.70792760
H      -3.36393961     -1.56661478     -0.41434001
H      -3.23738519     -1.12927850      1.29695843
H      -4.53384287      0.61683471     -0.86089418
H      -5.40748425     -0.44276346      0.28530277
H      -4.93023969      2.95721445      2.44459791
