47
CC(C)OC(=O)CC(C(=O)OC(C)C)S(=O)(=O)c1ccc([N+](=O)[O-])cc1
C      -4.84997713     -3.49209466     -1.33758037
C      -3.78531512     -3.33777333     -0.25865194
C      -4.24952860     -3.96097852      1.05260409
O      -3.57208411     -1.92616770     -0.07088180
C      -2.35377072     -1.56194911      0.40484651
O      -1.45501029     -2.32287121      0.73868865
C      -2.26845261     -0.06287790      0.51852447
C      -0.80676206      0.37808144      0.46380728
C      -0.63683668      1.75195746      1.03327780
O      -1.55646960      2.49657394      1.34404235
O       0.68323062      2.03082922      1.22369156
C       0.99253942      3.32251070      1.78527524
C       0.98149674      4.37812237      0.68549753
C       2.37665994      3.21381265      2.41316064
S      -0.20618166      0.36979205     -1.20829272
O      -0.41352719      1.68010817     -1.79506678
O      -0.71305140     -0.80684515     -1.88998663
C       1.55290065      0.11783070     -1.06307207
C       2.43812833      1.14623348     -1.40187187
C       3.81455920      0.93509650     -1.29030406
C       4.29206733     -0.30986599     -0.85307911
N       5.73941528     -0.53129238     -0.73179560
O       6.12135403     -1.64754868     -0.35361730
O       6.49129354      0.41392913     -1.00821076
C       3.40142676     -1.34621095     -0.53373134
C       2.02548696     -1.13214042     -0.64507290
H      -5.77996074     -2.99019353     -1.04812724
H      -4.51706151     -3.02302957     -2.26987664
H      -5.06629263     -4.54627397     -1.53569660
H      -2.86471801     -3.82174417     -0.60717217
H      -5.14957173     -3.46067679      1.42681537
H      -4.46522143     -5.02679439      0.93005865
H      -3.48511894     -3.85158742      1.82872219
H      -2.84473608      0.40253233     -0.28969347
H      -2.73341288      0.20819729      1.47338937
H      -0.19084056     -0.30427631      1.05910222
H       0.27170558      3.57811011      2.57123350
H       1.25122110      5.36248885      1.08021993
H       1.68238094      4.11798624     -0.11495448
H      -0.00791450      4.45239518      0.22299774
H       2.38327111      2.43864310      3.18713770
H       3.12501686      2.91988239      1.66866328
H       2.68421968      4.16129408      2.86586136
H       2.07002870      2.10872588     -1.75308800
H       4.49698552      1.74222695     -1.55160718
H       3.76150148     -2.32047515     -0.20680554
H       1.33492644     -1.94369289     -0.41595564
