36
CCOC(=O)Cc1ccc(-c2nc3ccccc3s2)cc1
C      -7.56030697      0.05212027     -0.24898986
C      -6.17710608     -0.56443264     -0.32390184
O      -5.21343774      0.49605933     -0.30989853
C      -3.91442021      0.07283613     -0.36792699
O      -3.57041507     -1.09839552     -0.43769685
C      -3.00151065      1.28054433     -0.35307980
C      -1.53116100      0.94466039     -0.27611444
C      -0.86619399      0.93326304      0.95374519
C       0.49413936      0.61346132      1.01981467
C       1.22815900      0.28723883     -0.13328260
C       2.66355014     -0.04078951      0.00655478
N       3.34275883      0.12012839      1.12688839
C       4.65819317     -0.27696629      0.96490931
C       5.66166232     -0.23839738      1.95425251
C       6.95572941     -0.67386601      1.65037049
C       7.25885282     -1.14535637      0.37702844
C       6.28051960     -1.19349157     -0.62111143
C       4.98467601     -0.75310893     -0.30352244
S       3.58511470     -0.68952499     -1.29750201
C       0.54826580      0.29714878     -1.36126743
C      -0.81327000      0.61874826     -1.43218083
H      -7.66712977      0.64969506      0.66238190
H      -8.33326752     -0.72140561     -0.25692623
H      -7.72740358      0.72794442     -1.09423951
H      -6.01753186     -1.22067238      0.53897901
H      -6.07888932     -1.14078732     -1.25062554
H      -3.18914869      1.86621450     -1.26104401
H      -3.27266629      1.90800941      0.50474540
H      -1.39556765      1.17005932      1.87409829
H       0.98529060      0.61466889      1.99242636
H       5.41955614      0.13000110      2.94608858
H       7.72678298     -0.64266317      2.41659172
H       8.26916340     -1.48177147      0.15327663
H       6.51764423     -1.56227022     -1.61433199
H       1.05737322      0.05624607     -2.29086856
H      -1.30800533      0.60485153     -2.40139985
