24
CCCCCC(C)O
C      -3.89725587      0.22419659     -0.17371320
C      -2.62366424     -0.56990784      0.06889963
C      -1.38609659      0.32535683      0.01221023
C      -0.10681041     -0.47740124      0.25707356
C       1.13281143      0.42166829      0.20105232
C       2.42255444     -0.35676409      0.48062580
C       3.63844353      0.55989118      0.48410732
O       2.61216370     -1.36348515     -0.50995795
H      -4.76953009     -0.43537147     -0.12877562
H      -4.02266268      1.00534580      0.58286790
H      -3.88130346      0.69968821     -1.15960870
H      -2.68555330     -1.05830124      1.04835948
H      -2.54507273     -1.36230832     -0.68451054
H      -1.33096164      0.81442228     -0.96801090
H      -1.47201274      1.11866529      0.76476011
H      -0.02652348     -1.27156469     -0.49466670
H      -0.16168857     -0.96436507      1.23827469
H       1.02884367      1.23293856      0.93168645
H       1.18750686      0.87989791     -0.79458785
H       2.35093120     -0.86080245      1.45061465
H       4.55116300     -0.01823801      0.66430925
H       3.55406518      1.32932879      1.25746098
H       3.76401298      1.05110817     -0.48712023
H       2.66663981     -0.92399833     -1.37576819
