34
CNC(=O)CCSCCSP(=O)(OC)OC
C       4.31233566      3.24996575     -0.01727060
N       4.09331910      1.82891912     -0.11350620
C       2.84909440      1.28129649      0.11661995
O       1.84793122      1.94940595      0.35204774
C       2.85097413     -0.23257734      0.05806570
C       1.43767992     -0.77361837      0.21580678
S       1.44634782     -2.60037763      0.20442935
C      -0.34874022     -2.87988914      0.39365095
C      -1.07368041     -2.77850452     -0.94616445
S      -2.84985766     -2.48801414     -0.68935515
P      -2.93479520     -0.40205576     -0.60620207
O      -2.53458244      0.18527903     -1.92850187
O      -4.39067765      0.11060702     -0.12801946
C      -4.92346673     -0.38727733      1.08110324
O      -1.97961612      0.11608848      0.59351228
C      -1.64899064      1.49303289      0.59343951
H       5.23744337      3.49570623     -0.54363488
H       3.47457754      3.79569055     -0.45966202
H       4.40474384      3.51787035      1.03851177
H       4.89991009      1.21771003     -0.13261812
H       3.27618788     -0.54063110     -0.90466800
H       3.49918481     -0.59929125      0.86305810
H       0.80384605     -0.40920062     -0.59891242
H       1.00577857     -0.43493887      1.16367474
H      -0.48627396     -3.88399875      0.81012732
H      -0.72499232     -2.17126452      1.13785984
H      -0.69061758     -1.96560627     -1.56984095
H      -0.95398969     -3.71015833     -1.50928010
H      -4.17762909     -0.36385408      1.87981703
H      -5.28336861     -1.40909239      0.93796383
H      -5.76807145      0.24151478      1.37441724
H      -1.08943914      1.71741334      1.50483025
H      -2.55661721      2.10217226      0.57535671
H      -1.02394828      1.72767816     -0.27190889
