24
Nc1c(S(=O)(=O)O)ccc2ccccc12
N      -1.21396406      1.63359497      1.02119301
C      -0.71749831      0.46626309      0.35689602
C      -1.60262480     -0.33696918     -0.38700473
S      -3.35145993     -0.02920115     -0.33622278
O      -3.59839048      1.08499849     -1.22733056
O      -4.03229063     -1.29738770     -0.49160009
O      -3.62287821      0.48709352      1.17282702
C      -1.14987072     -1.42466454     -1.13400645
C       0.21286810     -1.69653084     -1.18921550
C       1.13586648     -0.88131190     -0.51984766
C       2.50839923     -1.15893684     -0.62498261
C       3.45471104     -0.35424182      0.00489659
C       3.03993335      0.74234632      0.74646757
C       1.67722563      1.02975542      0.86582660
C       0.68638515      0.22669445      0.24880994
H      -0.61039895      1.88150972      1.80802997
H      -1.17087025      2.41745072      0.35634404
H      -2.90146284      1.12802282      1.39326885
H      -1.84882590     -2.05910374     -1.67593911
H       0.55179172     -2.54770914     -1.77789683
H       2.85590530     -2.00916385     -1.20940000
H       4.51328544     -0.58243229     -0.08954547
H       3.77510717      1.37741635      1.23478303
H       1.40905647      1.90250712      1.45364917
