45
NC1[C@@H]2CN(c3nc4c(cc3F)c(=O)c(C(=O)O)cn4-c3ccc(F)cc3F)C[C@H]12
N       6.00318615      1.62895016     -0.83036935
C       4.75986061      0.94924059     -0.47230075
C       4.46405714      0.68318066      0.97883805
C       3.54653460     -0.42747986      1.39107185
N       2.22791310      0.01615370      0.94988393
C       1.09532807     -0.75812525      0.98745641
N      -0.01490893     -0.25724579      0.38497644
C      -1.18547503     -0.94903887      0.38077551
C      -1.26354371     -2.20252062      0.99145313
C      -0.14374831     -2.73534315      1.62343795
C       1.03450159     -2.00398152      1.62058874
F       2.10112577     -2.53206054      2.24015273
C      -2.52143911     -2.96937819      0.96070763
O      -2.61184394     -4.07281692      1.49408761
C      -3.68351865     -2.38246318      0.27106191
C      -5.00349615     -3.04115411      0.18077402
O      -5.96911968     -2.53399396     -0.37035970
O      -5.06507655     -4.25670715      0.76490486
C      -3.50978878     -1.17524161     -0.28649009
N      -2.34471292     -0.40958716     -0.27834962
C      -2.33092401      0.87009687     -0.92885025
C      -1.79582493      2.00238136     -0.28590820
C      -1.78736456      3.25078918     -0.91540920
C      -2.31436160      3.37985248     -2.19452115
F      -2.30211731      4.57704024     -2.79398296
C      -2.85043640      2.28810385     -2.85857572
C      -2.85520073      1.04857469     -2.22513445
F      -3.35478464      0.00138160     -2.90040089
C       2.24428724      1.25557616      0.17747349
C       3.67226711      1.70875652      0.23835228
H       6.24107659      2.36022632     -0.16136609
H       5.91418087      2.09370554     -1.73395672
H       4.45246856      0.18425172     -1.18328843
H       5.16551183      0.98641444      1.74042790
H       3.56924535     -0.55064107      2.47897474
H       3.84574071     -1.36288527      0.90564291
H      -0.17129069     -3.70469128      2.11150899
H      -4.22095120     -4.55471737      1.18333683
H      -4.34886136     -0.69419157     -0.78972193
H      -1.38834029      1.92166077      0.71970187
H      -1.37448059      4.12032799     -0.41304994
H      -3.25500073      2.39526231     -3.85809332
H       1.94468328      1.09380105     -0.86437850
H       1.58831794      2.00484896      0.63412495
H       3.79632431      2.75368727      0.47578955
