13
CC(N)C(=O)O
C      -0.99524838     -0.79226540      0.64649038
C      -0.14347735     -0.10925794     -0.41181832
N      -0.20159329      1.37500633     -0.25842108
C       1.32557276     -0.55498046     -0.31768313
O       1.71237719     -1.69996775     -0.15058614
O       2.16445213      0.50472021     -0.47024886
H      -0.98401863     -1.87908479      0.50949283
H      -0.62173368     -0.58784330      1.65635711
H      -2.03682636     -0.45838922      0.59114670
H      -0.49410781     -0.36341550     -1.41781254
H      -1.14002260      1.67696286     -0.53775504
H      -0.16264855      1.59410290      0.74363965
H       1.57727456      1.29441204     -0.58280157
