32
Nc1ccc(CCc2ccc(N)cc2)cc1
N       4.31536188      1.16465336     -1.79748573
C       3.46294370      0.61748872     -0.83046316
C       3.50353510     -0.74926574     -0.54851661
C       2.57837588     -1.32777823      0.32604909
C       1.56887588     -0.55118158      0.90598907
C       0.55320280     -1.17778749      1.83147997
C      -0.60506627     -1.86517478      1.09660821
C      -1.59358410     -0.89853173      0.48899590
C      -1.48589985     -0.51763376     -0.85299053
C      -2.38716117      0.39764477     -1.40500199
C      -3.43683088      0.91465891     -0.64384575
N      -4.26284147      1.91686586     -1.16770243
C      -3.50639774      0.58132643      0.71011463
C      -2.60664644     -0.33099213      1.27010125
C       1.49081580      0.80610596      0.57540717
C       2.41740236      1.37673792     -0.30239697
H       5.20274313      0.67900662     -1.87844916
H       4.43198910      2.16940056     -1.71195368
H       4.25853112     -1.37989768     -1.00972344
H       2.64465937     -2.39205345      0.53848469
H       0.17637424     -0.42321075      2.53384605
H       1.07120091     -1.92317272      2.44926908
H      -0.22695762     -2.54467873      0.32200301
H      -1.14662007     -2.50180085      1.80865596
H      -0.68150579     -0.90889445     -1.47269603
H      -2.25654716      0.70432913     -2.43913509
H      -5.15717077      1.99485727     -0.69447496
H      -4.36310748      1.87196647     -2.17684353
H      -4.26447217      1.03132602      1.34513458
H      -2.69536032     -0.58283070      2.32409871
H       0.69029316      1.42450678      0.97654815
H       2.30986485      2.42400999     -0.57110647
