55
Cc1c(C(=O)O)c(O)cc2c1C(=O)c1c(O)c(C3OC(CO)C(O)C(O)C3O)c(O)c(O)c1C2=O
C       4.60702906      0.68399396      1.72277128
C       4.50387259     -0.23863881      0.53256118
C       5.57000428     -1.11140832      0.19438903
C       6.87672706     -1.11784892      0.89220978
O       7.50003653     -2.13504020      1.15021793
O       7.38679915      0.10480611      1.10841594
C       5.40755878     -2.05728823     -0.83333444
O       6.36710657     -2.97245639     -1.17714258
C       4.22640199     -2.11959371     -1.56425485
C       3.18379653     -1.23548702     -1.27376511
C       3.31737400     -0.28040165     -0.25622946
C       2.18820942      0.67375740     -0.05652922
O       2.31140662      1.68250178      0.62645474
C       0.87956611      0.43865118     -0.70190282
C      -0.25233372      1.21150247     -0.35826341
O      -0.14419930      2.26145438      0.52892959
C      -1.53314762      0.96406879     -0.91147405
C      -2.73053836      1.76353295     -0.39969966
O      -2.82239242      1.64463914      1.03805191
C      -3.35317342      0.39571112      1.48925807
C      -3.21026955      0.31268804      3.01055970
O      -3.50154532     -0.99817902      3.48613445
C      -4.81597571      0.28614599      1.05709930
O      -5.42163105     -0.93117691      1.51089274
C      -4.88024521      0.35326431     -0.47368952
O      -6.26678593      0.38117359     -0.85780816
C      -4.14906835      1.59145018     -1.01523786
O      -4.99211024      2.72412828     -0.66734752
C      -1.60012074     -0.01807672     -1.90312595
O      -2.76466081     -0.28337623     -2.57235749
C      -0.47697261     -0.76859745     -2.27171703
O      -0.68369172     -1.71137922     -3.24711908
C       0.75936573     -0.55786810     -1.65890817
C       1.92490202     -1.37266278     -2.02499546
O       1.82058165     -2.18569129     -2.93533946
H       3.69337354      0.63368353      2.32778585
H       4.78292594      1.71236021      1.38934215
H       5.40769444      0.40374382      2.41451792
H       8.23919986     -0.06906217      1.57340660
H       7.01173010     -3.06040250     -0.44553073
H       4.12400846     -2.86849719     -2.34673787
H       0.78905256      2.34778458      0.81937512
H      -2.46023220      2.81102188     -0.57428345
H      -2.77808568     -0.43890199      1.06579611
H      -2.18680949      0.55473218      3.30975048
H      -3.86599006      1.03296273      3.51442332
H      -4.40639302     -1.22207038      3.14964250
H      -5.40661359      1.10604822      1.48654056
H      -6.20907404     -1.04471215      0.93508259
H      -4.47392180     -0.57474156     -0.88458457
H      -6.51212157      1.33092889     -0.83369877
H      -4.12951090      1.59405925     -2.10603608
H      -4.47640608      3.53716707     -0.83315816
H      -2.55248245     -1.00363547     -3.20694663
H       0.17777998     -2.16076761     -3.42240116
