18
O=C(O)c1cccc(Cl)c1C(=O)O
O      -2.64201374      0.16040199     -0.68319138
C      -1.81933802     -0.69105753     -0.41204503
O      -2.18514319     -1.97217418     -0.22168407
C      -0.35711454     -0.50433768     -0.24788719
C       0.51066982     -1.58649061     -0.47487717
C       1.89159177     -1.41968984     -0.36962473
C       2.41641087     -0.17194601     -0.03751957
C       1.56383563      0.91274855      0.19390091
Cl      2.29511563      2.41410217      0.64010981
C       0.17700450      0.74833569      0.09023448
C      -0.70420845      1.88900401      0.35616446
O      -0.80345983      2.89934653     -0.30927880
O      -1.38268473      1.68738879      1.49905385
H      -3.15926113     -1.95902226     -0.33797938
H       0.11685792     -2.56489499     -0.74542488
H       2.55763160     -2.26133627     -0.54830740
H       3.49471437     -0.05059049      0.04556173
H      -1.97060848      2.47021213      1.56279438
