35
CC(=O)CC(C)(C)C1CCCCC1
C      -3.43237112      1.90526470     -0.08082804
C      -2.50274704      0.89223139      0.53803565
O      -2.16737361      0.99044071      1.71626973
C      -2.07467571     -0.25807510     -0.36594822
C      -0.79497630     -1.04842454      0.03843302
C      -1.08557966     -1.85597358      1.32597017
C      -0.54353030     -2.07998252     -1.08886334
C       0.45301871     -0.10476107      0.24828266
C       1.74452688     -0.86054160      0.63957310
C       2.90987951      0.09238504      0.90569122
C       3.17473350      1.00241470     -0.28618923
C       1.91774930      1.76083980     -0.69045662
C       0.74584016      0.81613425     -0.95783862
H      -2.94194266      2.37928931     -0.93464942
H      -3.68039069      2.67626479      0.65396962
H      -4.35274138      1.41014077     -0.39984322
H      -2.93311930     -0.94035312     -0.42389541
H      -1.94337249      0.15243819     -1.37469397
H      -2.04702924     -2.37796858      1.25720463
H      -1.11642889     -1.21603321      2.21265871
H      -0.32338803     -2.62239335      1.50336309
H       0.29983336     -2.73942230     -0.86207129
H      -0.34479101     -1.59425401     -2.04916290
H      -1.42019100     -2.72400756     -1.22939036
H       0.22285635      0.55437442      1.09615956
H       1.58394840     -1.45726740      1.54312874
H       2.03841339     -1.55229191     -0.15785763
H       3.81227098     -0.48614793      1.13393189
H       2.68896920      0.70118417      1.79108763
H       3.97223107      1.71233227     -0.03985014
H       3.52985891      0.40314512     -1.13352308
H       1.64316538      2.46546181      0.10428818
H       2.12066561      2.35664521     -1.58765804
H       0.97442335      0.21708210     -1.84658264
H      -0.12773564      1.42982903     -1.19874542
