22
c1ccc2c(c1)[nH]c1ccccc12
C      -3.41618621      0.21353074      0.38620213
C      -3.03789187     -1.11595292      0.21464985
C      -1.69203944     -1.45695817      0.03716553
C      -0.71328285     -0.44134539      0.03271334
C      -1.12462664      0.87946413      0.20694374
C      -2.46590506      1.23895639      0.38576309
N       0.00532204      1.66182850      0.16332440
C       1.13031204      0.89577255     -0.03247256
C       2.47395564      1.27468268     -0.13871755
C       3.41771244      0.26295474     -0.33937188
C       3.03088451     -1.07206235     -0.42968903
C       1.68278535     -1.43255050     -0.32115056
C       0.71048884     -0.43104820     -0.11845426
H      -4.46700978      0.45882616      0.52271171
H      -3.79310948     -1.89795104      0.21824634
H      -1.40544040     -2.49570240     -0.09591608
H      -2.76459737      2.27341545      0.51971236
H       0.00853837      2.66583099      0.26200566
H       2.77928780      2.31351015     -0.06889607
H       4.47015574      0.52346093     -0.42617379
H       3.78112653     -1.84317358     -0.58593224
H       1.38951982     -2.47548885     -0.39266412
