26
CC(C)C(=O)Oc1ccc([N+](=O)[O-])cc1
C       3.37037328      0.94310581     -0.28994385
C       2.78609065     -0.46361483     -0.24311139
C       3.60234610     -1.36453936      0.67973504
C       1.33711078     -0.40123921      0.21069723
O       0.94205079     -0.66087530      1.33964439
O       0.55041130      0.00817180     -0.86418891
C      -0.80208328      0.10994584     -0.53839282
C      -1.30083318      1.32988255     -0.08085883
C      -2.66084583      1.44519961      0.21135960
C      -3.50378959      0.33763481      0.02728416
N      -4.93557788      0.45662119      0.33274166
O      -5.34794566      1.54916824      0.74790983
O      -5.64867361     -0.54090009      0.15240619
C      -2.99564138     -0.88019106     -0.45217164
C      -1.63485551     -0.99036372     -0.74291743
H       3.33654578      1.41997039      0.69601327
H       4.41258583      0.92267100     -0.62480991
H       2.80718979      1.57988128     -0.98069789
H       2.80684386     -0.90872421     -1.24558826
H       3.63471951     -0.96891826      1.70101967
H       4.63217356     -1.45892169      0.31981782
H       3.16692894     -2.36863325      0.72789034
H      -0.63827617      2.18001512      0.05543053
H      -3.04575466      2.39424986      0.57887282
H      -3.64147464     -1.74301399     -0.60171361
H      -1.22961876     -1.92658252     -1.11642803
