58
O=C(NCc1ccc(OCCC(F)(F)F)nc1)C1c2ccccc2C(=O)N1CCc1ccccn1
O       0.25474694     -3.73038338     -0.15642960
C      -0.40494863     -2.86145307     -0.72382833
N       0.02400508     -2.22951876     -1.87590325
C       1.40235223     -2.27866398     -2.29863568
C       2.16078221     -1.12221921     -1.71426340
C       2.21092479      0.11967839     -2.35344120
C       2.86803995      1.18234186     -1.73987031
C       3.44756814      0.96992951     -0.50023372
O       4.07968276      2.05489599      0.07443247
C       4.49665663      1.81278629      1.41783471
C       5.12485664      3.07934801      1.97470674
C       4.09745329      4.16108534      2.19830971
F       3.13595103      3.75933325      3.05902718
F       3.49741048      4.55824060      1.05890967
F       4.68558544      5.25274580      2.74335812
N       3.42747593     -0.21418039      0.14464908
C       2.77835569     -1.22864901     -0.47113122
C      -1.82394879     -2.46856873     -0.26395440
C      -2.87679644     -3.36469368     -0.84903578
C      -3.03108981     -4.73699179     -0.74409376
C      -4.12060954     -5.33080216     -1.39119328
C      -5.03820533     -4.55601035     -2.12491894
C      -4.88092036     -3.17299272     -2.22376657
C      -3.79510395     -2.61074035     -1.58029339
C      -3.40336177     -1.19925542     -1.50392315
O      -4.02526292     -0.27078950     -1.98134621
N      -2.23084310     -1.14787339     -0.77054236
C      -1.67654940      0.09036214     -0.23839510
C      -2.40786196      0.57544413      1.01165978
C      -1.73743290      1.80900179      1.55061616
C      -2.20877092      3.07781731      1.22571773
C      -1.52211698      4.19005137      1.70475270
C      -0.38796761      4.00688161      2.48601099
C       0.01319787      2.71121175      2.76024974
N      -0.63288805      1.61304212      2.31011577
H      -0.54908063     -1.45942630     -2.20485769
H       1.86093616     -3.23060824     -2.00905027
H       1.41450836     -2.22750384     -3.39273452
H       1.73457144      0.26968670     -3.31870181
H       2.91736410      2.15803343     -2.20947883
H       3.64622202      1.50986306      2.04183335
H       5.25573493      1.02051315      1.42876451
H       5.61353154      2.85149206      2.92811507
H       5.89093443      3.45305548      1.28593984
H       2.75441875     -2.16093302      0.08962920
H      -1.87713714     -2.45394552      0.82945442
H      -2.32668082     -5.34286602     -0.18019677
H      -4.26223127     -6.40809051     -1.32600422
H      -5.87877661     -5.04090305     -2.61665456
H      -5.58144788     -2.55861415     -2.77937162
H      -1.75569118      0.85088505     -1.02508608
H      -0.60989470     -0.06543502     -0.04242818
H      -2.39513223     -0.20225919      1.78540500
H      -3.46446481      0.77360681      0.79500663
H      -3.08938642      3.20466361      0.60424071
H      -1.86616587      5.19189482      1.46511142
H       0.17364465      4.85120568      2.86973890
H       0.89385651      2.51527365      3.36523603
