29
CC(C)CCOCC(O)CO
C      -3.57581333      0.68670248      1.34238619
C      -2.37870781      0.24372286      0.49711451
C      -2.85919437     -0.20899126     -0.88216589
C      -1.59789795     -0.85990731      1.23795025
C      -0.32843440     -1.32700304      0.52825369
O       0.53483612     -0.21098552      0.31789247
C       1.74229490     -0.59476925     -0.35370369
C       2.58767549      0.66430628     -0.54149791
O       2.86846716      1.24693150      0.74473044
C       3.91751360      0.36052733     -1.22638121
O       4.67143533      1.56572183     -1.35509724
H      -3.24736961      1.05230133      2.32107330
H      -4.12087039      1.49901940      0.84990041
H      -4.27519375     -0.14032205      1.50594856
H      -1.72659425      1.11577897      0.36331174
H      -3.47016140      0.56777125     -1.35474913
H      -3.46455946     -1.11904692     -0.81280728
H      -2.01672727     -0.40866898     -1.55124658
H      -2.24746356     -1.72664523      1.41114093
H      -1.31259523     -0.47079601      2.22409029
H       0.18343400     -2.06556622      1.15614595
H      -0.56876909     -1.80024752     -0.42971164
H       2.27282334     -1.32152720      0.27226161
H       1.50132325     -1.04558008     -1.32259727
H       2.03229902      1.42494035     -1.10190602
H       2.00272750      1.26384496      1.20140088
H       4.51806205     -0.33630600     -0.63252736
H       3.76724733     -0.06111887     -2.22440292
H       4.59021277      2.00591290     -0.48452191
