19
COC1CCCC1
C       2.68963980     -0.53750292     -0.03258854
O       1.74488479      0.52337912     -0.07173236
C       0.44603272      0.12273757      0.33932166
C      -0.46316945      1.34142764      0.43131171
C      -1.86238259      0.74640173      0.42025825
C      -1.75950503     -0.52564410     -0.42128674
C      -0.27299858     -0.73912066     -0.69397527
H       3.66817478     -0.13412569     -0.30702867
H       2.42681988     -1.31990221     -0.75005939
H       2.75714773     -0.95645360      0.97601980
H       0.48958574     -0.38097121      1.31392010
H      -0.26783746      1.93563353      1.32951113
H      -0.31448009      2.00320606     -0.43120707
H      -2.60123279      1.44712101      0.01966247
H      -2.16965041      0.48898580      1.44079193
H      -2.18335882     -1.37518875      0.12559704
H      -2.31516429     -0.43068525     -1.36014869
H       0.00707304     -1.79462509     -0.61746264
H      -0.01957898     -0.41467299     -1.71090472
