14
CC(C)O[N+](=O)[O-]
C      -1.36987042     -0.91413985     -0.38345532
C      -0.16675731      0.01954585     -0.26566090
C      -0.43785486      1.08462353      0.79383910
O       0.94148489     -0.79041045      0.12998666
N       2.20352162     -0.27012812     -0.24652550
O       3.13503880     -0.99898512      0.08975554
O       2.22307293      0.80955176     -0.83841246
H      -1.17494206     -1.69263631     -1.12923006
H      -1.56481748     -1.42852013      0.56428460
H      -2.27089096     -0.36760117     -0.67852708
H      -0.01686269      0.47787660     -1.25094406
H       0.41096762      1.76850404      0.89304779
H      -1.32491837      1.67470198      0.54335895
H      -0.58717170      0.62761739      1.77848275
