6
F[B-](F)(F)F.[K+]
F       0.99428953      0.15985800     -1.04368382
B      -0.01278431      0.00443812     -0.00632800
F      -0.86745133     -1.12403052     -0.31344382
F       0.70316292     -0.25028440      1.23621114
F      -0.81721681      1.21001879      0.12724450
K       0.00000000      0.00000000      0.00000000
