75
C[C@H](CCC(=O)NCC(=O)O)[C@H]1CCC2C3C(CC[C@@]21C)[C@@]1(C)CC[C@@H](O)C[C@H]1C[C@@H]3O
C      -3.11764663     -2.46856605      1.65551758
C      -3.10239792     -0.93455976      1.55768175
C      -4.43885838     -0.44769879      0.93901713
C      -4.71705395     -0.92894365     -0.48767801
C      -6.01351837     -0.36158117     -1.03968452
O      -6.77389812      0.35886576     -0.40446660
N      -6.25944070     -0.75967061     -2.33792880
C      -7.36220844     -0.17547588     -3.08642502
C      -6.89503587      1.06684986     -3.82637209
O      -5.73906291      1.37029652     -4.08279504
O      -7.91627720      1.82728291     -4.26899273
C      -1.84010793     -0.42872706      0.80764192
C      -1.90900122      1.04118893      0.36132618
C      -0.45976613      1.40578795      0.07704468
C       0.24220705      0.84832520      1.31125566
C       1.79422429      0.88547733      1.31502817
C       2.43908570     -0.27187328      0.52450398
C       1.87177195     -1.61125717      1.03267641
C       0.36692285     -1.67883469      0.81597708
C      -0.42509756     -0.55142695      1.52186823
C      -0.47016294     -0.81052949      3.04039267
C       4.01762858     -0.24170113      0.51463197
C       4.59832422     -0.64179867      1.89448303
C       4.52141310     -1.28005693     -0.54608908
C       5.76351921     -0.81666470     -1.30476166
C       5.48717057      0.47557269     -2.07918810
O       4.91081127      0.17069639     -3.34732607
C       4.53191980      1.42679897     -1.34734355
C       4.56063561      1.18606750      0.16842781
C       3.85600914      2.30275675      0.94262003
C       2.33858625      2.24581792      0.84632609
O       1.79934552      3.27857304      1.66989293
H      -2.28604105     -2.85607820      2.24501238
H      -3.05311785     -2.93590687      0.66729086
H      -4.03901662     -2.81707602      2.13509581
H      -3.08867695     -0.53293032      2.57804458
H      -5.26161732     -0.78200039      1.58577851
H      -4.48040540      0.64780016      0.97267709
H      -4.80163414     -2.02073169     -0.51259842
H      -3.90692348     -0.63266467     -1.16145338
H      -5.46494913     -1.07863507     -2.87965192
H      -8.18044127      0.08456924     -2.40857157
H      -7.69660140     -0.91542074     -3.81844722
H      -7.47766362      2.58630857     -4.70824577
H      -1.79773083     -1.00510381     -0.12821239
H      -2.52945429      1.18376968     -0.52830453
H      -2.30865555      1.67408486      1.16339153
H      -0.10561929      0.92778398     -0.84299586
H      -0.34557576      2.48872186     -0.02514981
H      -0.07321735      1.49727800      2.14452660
H       2.08062542      0.76785843      2.37015876
H       2.11321476     -0.15605440     -0.51960489
H       2.33076460     -2.45039777      0.49807205
H       2.09426604     -1.75498258      2.09541337
H      -0.00360124     -2.65768641      1.14409228
H       0.19862167     -1.64183448     -0.26850899
H      -1.11128981     -0.08372174      3.55060703
H      -0.82919732     -1.81147107      3.28570831
H       0.52511826     -0.72106615      3.48928066
H       4.34884134     -1.67398274      2.16037985
H       5.69254607     -0.57619331      1.89259397
H       4.23271666      0.00419783      2.69806214
H       3.73858674     -1.47846922     -1.28974415
H       4.73102539     -2.24597568     -0.07042715
H       6.08624227     -1.61096092     -1.98829623
H       6.57997536     -0.65559023     -0.59020116
H       6.43827682      0.98487824     -2.27298448
H       5.54633550     -0.38250205     -3.83356666
H       4.82881784      2.45831254     -1.57595229
H       3.51197699      1.32318111     -1.73727500
H       5.61739090      1.24672684      0.46778368
H       4.20899746      3.28339090      0.59779361
H       4.15056781      2.26051898      1.99964286
H       2.02883395      2.44761241     -0.18493911
H       2.09764701      4.12945114      1.30500938
