60
CN1CC[C@]23c4c5ccc(O)c4O[C@H]2[C@@H](O[C@@H]2O[C@H](C(=O)O)[C@@H](O)[C@H](O)[C@H]2O)C=C[C@H]3[C@H]1C5
C       6.02701329     -0.13383155     -1.60267315
N       4.61430886     -0.50038394     -1.53502455
C       4.33393765     -1.25843477     -0.30983536
C       2.86016337     -1.68746064     -0.21133404
C       1.88829279     -0.52927492     -0.52795381
C       2.01707657      0.52035750      0.52645604
C       2.91881579      1.57212056      0.53805069
C       2.88584155      2.42358935      1.64726464
C       1.95220350      2.20730519      2.68583282
C       1.02076777      1.17103414      2.60004421
O       0.09258745      1.02152190      3.58334917
C       1.05258323      0.34955025      1.49558699
O       0.16693761     -0.65125932      1.18699251
C       0.41135217     -0.89167582     -0.25502124
C      -0.63596635     -0.13718072     -1.14211696
O      -1.66660358      0.48251678     -0.36462858
C      -2.67728902     -0.42924718      0.06766125
O      -3.52239747     -0.75164891     -1.02773278
C      -4.90966885     -0.91775648     -0.73898984
C      -5.80582636      0.29622886     -1.00012720
O      -7.03429751      0.28667068     -1.00400087
O      -5.13216085      1.44127798     -1.23608540
C      -5.18810778     -1.47508323      0.66499824
O      -4.66852911     -2.81862158      0.74102374
C      -4.50833117     -0.65193582      1.76744455
O      -5.48160481      0.16156800      2.43660641
C      -3.40702034      0.25935133      1.22671081
O      -2.50007280      0.59716838      2.29072315
C      -0.08046646      0.94346467     -2.03634314
C       1.20933343      1.04845491     -2.38715934
C       2.24891121      0.07223017     -1.89272593
C       3.69902993      0.65533848     -1.75101322
C       3.78436145      1.79673217     -0.67592587
H       6.65163110     -1.03247330     -1.62958503
H       6.35024420      0.46329355     -0.74749370
H       6.24432659      0.42958141     -2.51944448
H       4.94650329     -2.16957273     -0.29935612
H       4.61952041     -0.68667802      0.58222832
H       2.68083520     -2.50070937     -0.92481792
H       2.68119724     -2.10596634      0.78583597
H       3.56445752      3.27469141      1.71166496
H       1.93235523      2.87505774      3.54827003
H      -0.48968924      0.27455170      3.32775506
H       0.25612073     -1.96996723     -0.40799939
H      -1.09018542     -0.86902490     -1.82423839
H      -2.20579567     -1.34921912      0.42722939
H      -5.23923310     -1.65695972     -1.47460487
H      -5.83293380      2.11782617     -1.37727199
H      -6.26552440     -1.54114757      0.85541186
H      -5.24943777     -3.38641081      0.20166806
H      -4.09569348     -1.32479379      2.53305267
H      -4.99346632      0.61734811      3.14808467
H      -3.83509798      1.21693064      0.89868345
H      -1.80444343      1.13068438      1.84978915
H      -0.80635142      1.64442630     -2.44589088
H       1.51108658      1.81634872     -3.09073771
H       2.27604304     -0.72607748     -2.65185321
H       3.97175175      1.10037229     -2.71902217
H       3.43999490      2.72489472     -1.15179771
H       4.81660908      1.97870463     -0.36561394
