25
CC1(C)Cc2cccc([N+](=O)[O-])c2O1
C      -2.16063716      0.22207155     -1.37624219
C      -1.53979593      0.38816604      0.01667209
C      -2.48866870      1.17772371      0.91927813
C      -1.17341471     -0.97356378      0.64594939
C       0.29048968     -0.98104453      0.40915218
C       1.19770739     -2.01074689      0.61498979
C       2.55433065     -1.76719369      0.37644926
C       2.98544085     -0.50458302     -0.05804716
C       2.04484387      0.51570442     -0.25911721
N       2.49349953      1.81523900     -0.71595541
O       3.49961962      2.28651536     -0.16472919
O       1.87897136      2.34677717     -1.65054229
C       0.70533736      0.27031272     -0.02119404
O      -0.32056175      1.16961469     -0.13058763
H      -3.10350241     -0.33256192     -1.33114741
H      -2.35245476      1.19892413     -1.83464927
H      -1.48002757     -0.30754749     -2.05245335
H      -3.43058188      0.64290226      1.07799588
H      -2.71295293      2.15912353      0.48607722
H      -2.02802002      1.37046463      1.89491567
H      -1.37029324     -0.99818427      1.72330848
H      -1.68357993     -1.81337222      0.16480871
H       0.86757169     -2.98508575      0.96463717
H       3.28209781     -2.56069217      0.53542947
H       4.04458119     -0.32896348     -0.23499830
