23
CC1CCCC(=NO)C1=NO
C      -0.32319955     -1.44297110      1.35447033
C      -0.28611280     -1.13061288     -0.13932773
C      -1.57948701     -0.46179018     -0.64085264
C      -1.75415010      0.98738831     -0.16843031
C      -0.55093761      1.85385425     -0.53393878
C       0.68998428      1.20704036      0.01406936
N       1.45115080      1.83605696      0.85811326
O       2.48743134      1.01910273      1.32040457
C       0.88553556     -0.21588056     -0.44532437
N       1.96559703     -0.51424059     -1.10376957
O       1.98492666     -1.85837034     -1.48735726
H      -1.16118748     -2.10680388      1.59075361
H       0.60156060     -1.94291820      1.66329529
H      -0.42249226     -0.54110208      1.96685919
H      -0.17971752     -2.07949023     -0.67475378
H      -2.44987261     -1.05261321     -0.33168702
H      -1.57189646     -0.46552769     -1.73896651
H      -1.90604226      1.00331253      0.91741309
H      -2.65797521      1.41050677     -0.62145657
H      -0.66567062      2.86143804     -0.12163743
H      -0.44919132      1.93891571     -1.62140558
H       3.02797066      1.63698066      1.84656536
H       2.86377588     -1.94227538     -1.90303652
