23
Clc1ccc(Oc2cc(Cl)c(Cl)cc2Cl)cc1Cl
Cl     -5.09852956      0.64712778     -1.22919289
C      -3.59168972      0.39674263     -0.42281731
C      -3.31814014      1.18079433      0.70236857
C      -2.11418179      1.02198119      1.39102691
C      -1.17607525      0.09032050      0.94670008
O      -0.02458749     -0.03199053      1.69157454
C       1.16079116     -0.12821859      0.99631046
C       1.55176102      0.88604785      0.11503154
C       2.77709539      0.79573923     -0.55107217
Cl      3.19574415      2.07357825     -1.63500088
C       3.61747833     -0.30187069     -0.32369044
Cl      5.14370571     -0.47610482     -1.11423201
C       3.23430260     -1.30356159      0.57356705
C       2.01083162     -1.21233817      1.23839517
Cl      1.57262676     -2.46650695      2.33813726
C      -1.45212249     -0.71355208     -0.16209990
C      -2.65811867     -0.55467654     -0.85240304
Cl     -2.93463043     -1.56823834     -2.22455649
H      -4.04143260      1.91473885      1.05058097
H      -1.90864047      1.62654565      2.27147428
H       0.90745273      1.74699710     -0.04579674
H       3.88986691     -2.15213158      0.75553105
H      -0.74350777     -1.47142347     -0.48441757
