24
CC(=O)OCCOC(C)C
C       4.17716730      0.82787017      0.03386403
C       2.74078469      0.53450337     -0.27299966
O       1.99275764      1.29077394     -0.87580630
O       2.39670947     -0.68442761      0.22515565
C       1.04266267     -1.08693244     -0.03143584
C       0.07394805     -0.44989842      0.96478015
O      -1.26678795     -0.87770504      0.72667003
C      -1.95787116     -0.09796609     -0.25539720
C      -2.58345547      1.12802691      0.40208655
C      -3.03935530     -0.98779141     -0.85637350
H       4.81608041      0.06329123     -0.41518120
H       4.32433896      0.86623698      1.11604337
H       4.44723698      1.79910526     -0.39052207
H       1.00118847     -2.17767140      0.06784795
H       0.76533378     -0.87644708     -1.07117363
H       0.34675157     -0.77514551      1.97518622
H       0.15115467      0.64238127      0.97036098
H      -1.27497984      0.21216771     -1.05467020
H      -3.23212772      0.83650158      1.23556827
H      -3.17350386      1.70471685     -0.31701204
H      -1.81568869      1.78723033      0.81881180
H      -3.72944851     -1.34614913     -0.08437924
H      -2.58968615     -1.87638558     -1.31277815
H      -3.61321000     -0.45628590     -1.62162755
