62
O=C1CCCCCN1C(=O)NCCCCCCNC(=O)N1CCCCCC1=O
O      -3.94901104      1.68790991      1.77914385
C      -5.04449096      1.35829303      1.31380665
C      -6.25360496      1.29384734      2.23566447
C      -6.83997752     -0.10271499      2.43563583
C      -6.61833178     -1.10270661      1.30464149
C      -7.10026748     -0.63905795     -0.06663305
C      -6.61484419      0.74932297     -0.49747743
N      -5.25952682      1.04612892     -0.03600616
C      -4.25103765      0.98823383     -1.00934697
O      -4.47853471      0.76119914     -2.19911318
N      -2.97492923      1.20290198     -0.55564947
C      -1.84028833      1.35388400     -1.43967544
C      -1.35967744      0.03984257     -2.05592712
C      -0.92271103     -1.03176565     -1.05274920
C       0.21004343     -0.57594660     -0.12986498
C       0.83093091     -1.76087506      0.61584763
C       1.87339454     -1.32490285      1.64551643
N       2.98943757     -0.62353133      1.04968417
C       4.03336041     -1.26814085      0.43674095
O       4.14373336     -2.49363575      0.47623467
N       4.97589990     -0.43487987     -0.18731718
C       6.14067076     -1.10834179     -0.75861347
C       7.32657690     -1.12036752      0.20328404
C       8.10600913      0.19271538      0.20343310
C       7.27175589      1.41507630      0.58122029
C       6.17853491      1.73168027     -0.43433275
C       4.89947644      0.95520745     -0.17654283
O       3.84272622      1.57425585     -0.01143162
H      -5.95625061      1.69194712      3.21464794
H      -7.01595236      1.99314406      1.87570039
H      -6.40541810     -0.53179394      3.34847871
H      -7.91395507     -0.00633888      2.63609618
H      -7.12236995     -2.04277978      1.55607768
H      -5.55128519     -1.34950819      1.25036676
H      -8.19862391     -0.64923221     -0.09699550
H      -6.76299540     -1.37761177     -0.80623157
H      -7.29694326      1.52162754     -0.12093905
H      -6.68932935      0.82189081     -1.59005392
H      -2.88070657      1.51478328      0.41098350
H      -2.12570464      2.04581348     -2.24093796
H      -1.04103403      1.83362898     -0.86488605
H      -0.51892258      0.25953254     -2.72684460
H      -2.14964261     -0.38637402     -2.68595114
H      -0.59355581     -1.90959752     -1.62469151
H      -1.78162393     -1.35603933     -0.45142811
H      -0.17442844      0.14911744      0.59622208
H       0.98103813     -0.06818947     -0.72106669
H       1.28798871     -2.44488079     -0.10719862
H       0.04209505     -2.32025448      1.13071190
H       1.42658355     -0.65255402      2.38431113
H       2.25195074     -2.20551598      2.17563458
H       2.85197268      0.35157902      0.78865454
H       6.40813693     -0.62480001     -1.70497793
H       5.88275376     -2.14239018     -1.01358427
H       8.01609620     -1.91752053     -0.09748184
H       6.98910529     -1.35392444      1.21933554
H       8.55491573      0.35199376     -0.78660389
H       8.94297491      0.10234571      0.90833674
H       6.84614899      1.28079045      1.58420049
H       7.95060850      2.27521460      0.63534068
H       5.92349696      2.79468555     -0.34121455
H       6.50755849      1.58757909     -1.46869230
