45
CC(C)CC(N(C)C)C1(c2ccc(Cl)cc2)CCC1
C       3.36644219     -0.07998284      0.98795712
C       2.36102205      0.79286084      0.23411313
C       3.11995568      1.81684713     -0.61804828
C       1.42402213     -0.03626865     -0.66986686
C       0.44648661     -1.01211531      0.03956481
N      -0.19363633     -2.00997287     -0.86957079
C      -0.36765449     -1.58943485     -2.25954872
C       0.50554978     -3.29681461     -0.82918631
C      -0.65828299     -0.30040337      0.90584917
C      -1.56155253      0.76448149      0.05557742
C      -2.74390542      0.37641036     -0.61216184
C      -3.53314901      1.28238094     -1.32902052
C      -3.15856746      2.61757745     -1.39523547
Cl     -4.12084993      3.73798888     -2.27606563
C      -2.00553584      3.04856480     -0.75200902
C      -1.22477411      2.13250757     -0.03787828
C      -0.16210055      0.21088300      2.32381099
C      -1.45960629     -0.34982681      2.92676248
C      -1.47994280     -1.35576958      1.76704908
H       2.87073149     -0.75875145      1.68669972
H       3.96475127     -0.68318925      0.29662332
H       4.05399073      0.54017992      1.57345834
H       1.77465790      1.35802758      0.96228348
H       3.74045183      1.32424383     -1.37446543
H       3.77346318      2.43521412      0.00654029
H       2.42317549      2.48654115     -1.13339414
H       0.86302181      0.65181357     -1.31234883
H       2.06929055     -0.61926073     -1.34163144
H       1.05054720     -1.58656330      0.75329419
H      -0.85121278     -0.61378337     -2.34218210
H      -1.02077793     -2.29759482     -2.78270758
H       0.57924468     -1.54729841     -2.80917230
H      -0.01212658     -4.03970333     -1.44660370
H       1.53919807     -3.21274814     -1.18313585
H       0.51801198     -3.69991705      0.18964844
H      -3.04819802     -0.66907818     -0.58673151
H      -4.43126292      0.93328466     -1.83055292
H      -1.70496587      4.09157146     -0.79767387
H      -0.32756094      2.49890403      0.45619117
H      -0.03182316      1.28747606      2.45843609
H       0.73444056     -0.29129709      2.70591740
H      -1.37143984     -0.77987725      3.92756658
H      -2.29712704      0.35692748      2.91891811
H      -0.93619911     -2.28104594      1.99793194
H      -2.47620326     -1.63398910      1.41499812
