29
C=C[Si](C)(C)O[Si](C)(C)C=C
C      -2.31255844      1.96541381      0.76687594
C      -2.27761593      1.21748964     -0.34359033
Si     -1.47000422     -0.45519332     -0.49501721
C      -2.62787153     -1.73878166      0.24494472
C      -1.24224609     -0.84932541     -2.31756106
O      -0.01204427     -0.46508211      0.31474057
Si      1.52812464      0.17287037      0.24002697
C       1.49790041      2.05006734      0.23476214
C       2.42752425     -0.41557543     -1.30180966
C       2.50505170     -0.38900493      1.72811673
C       2.03637620     -1.15108875      2.72464593
H      -1.85240546      1.64470003      1.69825951
H      -2.80797329      2.93204432      0.76815551
H      -2.74810456      1.56982007     -1.25541228
H      -2.19580394     -2.73990899      0.15564974
H      -2.80302895     -1.53495737      1.30549050
H      -3.59260393     -1.73398824     -0.27099359
H      -0.63413548     -0.08411886     -2.80886589
H      -2.20962837     -0.89492811     -2.82672162
H      -0.74445800     -1.81557822     -2.44213586
H       2.51475216      2.45313440      0.20766118
H       1.00235360      2.43221421      1.13213464
H       0.95992670      2.42577108     -0.64062760
H       3.45691137     -0.04497253     -1.31384219
H       2.45524685     -1.50864757     -1.33898171
H       1.92566773     -0.05436922     -2.20405481
H       3.53254812     -0.04159876      1.73937683
H       1.01186993     -1.51449677      2.74289136
H       2.67622881     -1.43190899      3.55588153
