19
O=C([O-])COc1ccccc1.[Na+]
O       2.67833362      0.01033623      2.07261408
C       2.86174043      0.37055493      0.87010057
O       3.50201789      1.36820396      0.42881355
C       2.27802530     -0.58664530     -0.18794545
O       1.26846322      0.04296502     -1.00153203
C      -0.01796079      0.04262770     -0.54060456
C      -0.43382300     -0.28917753      0.74747143
C      -1.79099758     -0.24313046      1.08420690
C      -2.73905769      0.13793173      0.13607163
C      -2.32977755      0.48070364     -1.15012154
C      -0.97405323      0.43556294     -1.48223603
Na      0.00000000      0.00000000      0.00000000
H       3.09607768     -0.85909360     -0.86539489
H       1.91732696     -1.52801153      0.24352836
H       0.27799266     -0.56608872      1.52012250
H      -2.09645104     -0.49515179      2.09583458
H      -3.79015426      0.17800608      0.40448018
H      -3.05803010      0.78970533     -1.89326590
H      -0.64967250      0.71070137     -2.48214338
