16
CCOC1CC1
C       2.58488588      0.25697585     -0.06937713
C       1.29011836     -0.51676085     -0.21304087
O       0.28924338      0.36437121     -0.71659711
C      -0.99381010     -0.27308479     -0.85902023
C      -1.94770195     -0.09575463      0.28772344
C      -2.15582124      0.67072130     -0.98589778
H       2.89691621      0.66932549     -1.03461550
H       2.45392535      1.10449392      0.61155188
H       3.38256201     -0.38480738      0.31493885
H       0.97827474     -0.91007373      0.76064215
H       1.42635743     -1.35091524     -0.90981357
H      -1.05006285     -1.19118552     -1.43636495
H      -1.60400839      0.45216889      1.15705436
H      -2.62823891     -0.90839279      0.50994772
H      -2.97596198      0.37885334     -1.63015900
H      -1.94667794      1.73406493     -0.98145746
