44
NC(CSCCCCCCSCC(N)C(=O)O)C(=O)O
N       6.66848185     -1.02087316      1.49479791
C       5.76312388     -1.20328417      0.31031704
C       4.55522488     -0.25480706      0.30401413
S       3.59596381     -0.39139553      1.85827077
C       2.38726151      0.95150417      1.59277626
C       1.38208708      0.71253655      0.46340448
C       0.46873060     -0.49632957      0.69388036
C      -0.53055782     -0.72816522     -0.44498341
C      -1.58324582      0.37813688     -0.57030161
C      -2.62070118      0.02065078     -1.63348165
S      -3.81342722      1.36652644     -1.94819823
C      -4.62125256      1.53988832     -0.31160451
C      -5.29311120      0.28161079      0.25293547
N      -5.81976555      0.56223414      1.61932018
C      -6.43364088     -0.18345692     -0.65522721
O      -6.38168715     -1.07488844     -1.48666199
O      -7.58554100      0.49750145     -0.45455074
C       6.59156247     -0.98038744     -0.96194295
O       6.13783467     -0.78113693     -2.07708627
O       7.92308617     -1.04800496     -0.69550231
H       6.73180957     -0.01353660      1.68449942
H       6.13588041     -1.36112691      2.30665584
H       5.43841510     -2.25053749      0.29479946
H       3.90246390     -0.50130122     -0.53928559
H       4.88689915      0.78301314      0.18544034
H       1.84657349      1.09045713      2.53539229
H       2.94065890      1.87834678      1.40741834
H       1.90006096      0.61253143     -0.49683820
H       0.76764038      1.61695823      0.38433623
H      -0.07374576     -0.37551129      1.63937792
H       1.07369014     -1.40495233      0.78982044
H       0.01082240     -0.83529840     -1.39286081
H      -1.03878101     -1.68329762     -0.26185987
H      -2.06539075      0.51608991      0.40351029
H      -1.09621504      1.32267056     -0.83718565
H      -2.11441422     -0.17525725     -2.58524906
H      -3.16029471     -0.89460367     -1.37228285
H      -3.87504518      1.92580710      0.39142280
H      -5.36756984      2.33488488     -0.43085071
H      -4.58025397     -0.54141924      0.35834977
H      -6.23138742     -0.29704141      1.98700335
H      -6.61627918      1.19868307      1.50982168
H      -8.20017286      0.11116115     -1.11476106
H       7.99420897     -1.20458007      0.28127003
