19
O=C(O)COc1c(Cl)ccc(Cl)c1Cl
O       3.42524377     -0.22984228     -1.98093523
C       3.15851398      0.00586664     -0.81463734
O       4.15404322      0.24680596      0.06815169
C       1.79159587      0.07329486     -0.15965861
O       0.76865234     -0.18058919     -1.12633476
C      -0.47922099     -0.12436008     -0.55131886
C      -1.06535390     -1.29298049     -0.04389020
Cl     -0.24097420     -2.80966920     -0.07900322
C      -2.34849344     -1.25487486      0.50317204
C      -3.05943201     -0.05452481      0.52901857
C      -2.49427808      1.10962146     -0.00210901
Cl     -3.44835606      2.55050266      0.05717842
C      -1.20516982      1.07957307     -0.55459212
Cl     -0.49850391      2.50528982     -1.24669452
H       4.96649232      0.17505040     -0.47756321
H       1.76513495     -0.68217075      0.63359547
H       1.67498426      1.07624925      0.26608661
H      -2.80431610     -2.15809158      0.90333882
H      -4.06056220     -0.03515088      0.95528564
