27
O=[N+]([O-])OC1CCCCCC1O[N+](=O)[O-]
O       1.82374673      1.30092827     -2.60889942
N       1.79509716      2.28057877     -1.86353668
O       2.40313415      3.34539628     -1.93490039
O       0.96178914      2.20120996     -0.71980505
C       0.17065819      0.99796451     -0.65090704
C      -1.09230340      1.41011328      0.12231168
C      -2.00555336      0.30795910      0.65064342
C      -2.03401062     -0.98078199     -0.16133236
C      -0.87893254     -1.91988023      0.17806153
C       0.47515872     -1.51526568     -0.39767791
C       1.00589527     -0.12981819      0.00496497
O       0.98349765      0.04877243      1.42395649
N       2.10249086     -0.48721393      2.10513245
O       2.96456164     -1.04911116      1.43076332
O       2.04308657     -0.30952320      3.31964240
H      -0.15397193      0.70261796     -1.65721471
H      -1.68116725      2.05684041     -0.54379168
H      -0.82345816      2.06886943      0.95975528
H      -1.73823003      0.08146582      1.69037410
H      -3.02386131      0.71546888      0.69655944
H      -2.96451681     -1.50749211      0.08683963
H      -2.07447560     -0.77391123     -1.23661063
H      -0.80013998     -2.04056089      1.26542126
H      -1.12267626     -2.91432499     -0.21747125
H       0.43790607     -1.58347617     -1.49233939
H       1.19609479     -2.27675564     -0.07554511
H       2.03018032     -0.03006967     -0.37439437
