33
COc1ccc(NS(=O)(=O)c2ccc(N)cc2)cc1
C       4.29797956     -1.83555314      1.67236341
O       3.43471882     -2.06864736      0.56634751
C       2.75073415     -0.99046493      0.07794695
C       2.81825645      0.31475986      0.56588411
C       2.05813655      1.32719482     -0.02987625
C       1.23203416      1.03905597     -1.11479874
N       0.42811365      2.05213797     -1.70527969
S      -0.83832166      2.72513445     -0.81091009
O      -1.61649669      3.51001169     -1.74710623
O      -0.31717638      3.31262432      0.40476364
C      -1.81456767      1.30645976     -0.36653342
C      -1.60746543      0.67534927      0.86129984
C      -2.38024745     -0.43832651      1.19954444
C      -3.39596928     -0.88983694      0.35043692
N      -4.08064828     -2.07471105      0.64125918
C      -3.56545755     -0.26777391     -0.89097634
C      -2.79737226      0.84457669     -1.24450271
C       1.16119381     -0.26160037     -1.60835342
C       1.91929470     -1.27092036     -1.01005955
H       5.09679233     -1.13449985      1.40874779
H       4.76572387     -2.78852648      1.93784045
H       3.73599697     -1.48598378      2.54474683
H       3.44982445      0.58195304      1.40658447
H       2.12440077      2.34124878      0.35810098
H       0.18395607      1.94990002     -2.68862825
H      -0.83913604      1.02590802      1.54656653
H      -2.18384970     -0.95073986      2.13810031
H      -4.97966096     -2.15703524      0.17664341
H      -4.14202940     -2.28180601      1.63354250
H      -4.30542088     -0.64413647     -1.59302787
H      -2.96711045      1.33255753     -2.20117728
H       0.51472836     -0.51063690     -2.44443649
H       1.85904540     -2.28767303     -1.39157351
