36
CC1=C2[C@H]3OC(=O)[C@@H](C)[C@@H]3CC[C@@]2(C)C=CC1=O
C      -0.92379373      3.06097613      0.04482858
C      -1.45301045      1.67839768      0.31195004
C      -0.87356248      0.52459398     -0.10174618
C       0.45852756      0.41849379     -0.82521964
O       1.19640596      1.61508312     -1.03626348
C       2.52627490      1.27939824     -1.11247408
O       3.40827982      2.05564776     -1.43853853
C       2.71000052     -0.18081006     -0.75061766
C       3.94639900     -0.42321980      0.09429345
C       1.41543288     -0.41713055      0.00126163
C       0.91656467     -1.84450845      0.13305223
C      -0.46042554     -1.82720625      0.81457011
C      -1.49535739     -0.87170213      0.14646651
C      -1.98639247     -1.47537935     -1.18892524
C      -2.70568372     -0.81024180      1.05176133
C      -3.26766720      0.32199250      1.48348111
C      -2.72344144      1.63919151      1.10619641
O      -3.31009888      2.65232313      1.47081630
H      -1.64991150      3.84682749      0.27435162
H      -0.03512668      3.25429444      0.65413752
H      -0.67961065      3.18940643     -1.01449863
H       0.28219709     -0.01206924     -1.81939736
H       2.75194918     -0.76344758     -1.67820500
H       4.00074811     -1.46656714      0.42007922
H       4.85292614     -0.19869044     -0.47794563
H       3.95853855      0.21633177      0.98379201
H       1.50988843      0.01896250      1.00895013
H       0.84840634     -2.32680809     -0.84874543
H       1.61483388     -2.43948778      0.73222707
H      -0.85099243     -2.85311993      0.84409175
H      -0.31335083     -1.52812720      1.86271940
H      -1.16918755     -1.66868206     -1.89056174
H      -2.69644814     -0.80644918     -1.69114033
H      -2.49628618     -2.43383439     -1.02964035
H      -3.15880280     -1.75424722      1.34995767
H      -4.14822298      0.32980817      2.11493517
