43
CC(=O)C(N=Nc1ccccc1C(F)(F)F)C(=O)Nc1ccc2[nH]c(=O)[nH]c2c1
C      -1.00223956      1.87890350     -3.57293518
C      -1.28936969      2.64705286     -2.30499319
O      -1.83176675      3.75538572     -2.35455996
C      -0.96345708      1.99282912     -0.97685518
N      -1.69542957      0.70911545     -0.91866036
N      -2.80898400      0.81844806     -0.36089337
C      -3.45698421     -0.42988582     -0.33834642
C      -4.20635654     -0.83769219     -1.45208751
C      -4.88037668     -2.05927630     -1.45123723
C      -4.81913700     -2.88398766     -0.33211442
C      -4.08699446     -2.48606985      0.78656801
C      -3.40144740     -1.25740542      0.79470341
C      -2.63066492     -0.81709747      2.00582164
F      -1.34483859     -0.44427866      1.72136311
F      -2.51428186     -1.78871915      2.95615129
F      -3.19383657      0.24885166      2.63727671
C       0.51998416      1.70354089     -0.78486021
O       1.37256565      2.21506497     -1.50573564
N       0.77767172      0.86834763      0.29585704
C       2.03439325      0.43184873      0.76940789
C       2.02097231     -0.44715861      1.88619361
C       3.20256461     -0.95149878      2.44697691
C       4.37682874     -0.55242778      1.86203670
N       5.68902069     -0.87910842      2.18192726
C       6.54712038     -0.22512971      1.28570820
O       7.76315173     -0.28776996      1.26839937
N       5.73126142      0.51108959      0.41481507
C       4.40122428      0.30893326      0.76933764
C       3.25463462      0.81839720      0.20155876
H      -1.70518368      1.04688864     -3.66718211
H       0.02302670      1.50368276     -3.57830285
H      -1.12440585      2.54361998     -4.43422958
H      -1.26972152      2.66874379     -0.16698978
H      -4.26562054     -0.19294936     -2.32632148
H      -5.45650946     -2.36325698     -2.32219491
H      -5.34768990     -3.83529365     -0.32788716
H      -4.05818245     -3.13843590      1.65922367
H      -0.03647520      0.49393862      0.78148176
H       1.07560089     -0.74695547      2.33382364
H       3.18180801     -1.62106710      3.29793969
H       6.00881822     -1.48382170      2.92024148
H       6.08030854      1.07955364     -0.33906450
H       3.32899756      1.48504987     -0.64624182
