17
NC(=O)NC(=O)C=CC(=O)O
N       3.39429351     -0.37433896     -0.35735647
C       2.76708694      0.31110231      0.62071513
O       3.38984345      0.93610611      1.47213928
N       1.40258569      0.27384597      0.63282733
C       0.56421289     -0.16120160     -0.37127076
O       0.92821181     -0.66998966     -1.42586519
C      -0.86908844      0.05140633     -0.05492112
C      -1.79765865     -0.30509047     -0.95384712
C      -3.23588611     -0.13530930     -0.72768659
O      -4.10255137     -0.45033220     -1.52148450
O      -3.53329404      0.41336299      0.46024648
H       4.38981097     -0.23391968     -0.45495071
H       2.86785682     -0.62593772     -1.19021996
H       1.01864309      0.77204955      1.42120543
H      -1.13412046      0.48742801      0.90022067
H      -1.53658553     -0.74549795     -1.91115803
H      -4.51336057      0.45631628      0.45422763
