34
NS(=O)(=O)c1ccc(SCCCCCO)cc1
N       5.99069718      0.38351332      0.39585105
S       4.98066266     -0.95434124      0.31370721
O       5.41194465     -1.70826053     -0.84016009
O       4.95716965     -1.51776374      1.64316233
C       3.41420436     -0.20877728     -0.03114731
C       3.01043461     -0.02947471     -1.35666388
C       1.76178987      0.53687668     -1.62567808
C       0.91237073      0.90753659     -0.57687776
S      -0.68057595      1.64221417     -0.89398070
C      -1.51810578      0.26146954     -1.75234734
C      -1.79126345     -0.96397552     -0.87573422
C      -2.62000209     -0.72675538      0.39282000
C      -4.01070775     -0.14741534      0.11362552
C      -4.84020439     -0.01064253      1.38556253
O      -5.10711920     -1.29551601      1.92895172
C       1.32857817      0.72382926      0.74678490
C       2.57517464      0.15736644      1.02402243
H       6.38358989      0.46400113      1.33406192
H       6.69334942      0.33346141     -0.34221985
H       3.65816354     -0.32156009     -2.18028642
H       1.46246409      0.69077292     -2.65974301
H      -0.92268050     -0.03536150     -2.62229552
H      -2.46098282      0.65148037     -2.14920109
H      -0.83998589     -1.42791862     -0.58715032
H      -2.30863616     -1.71031045     -1.49246435
H      -2.72426412     -1.69072938      0.90622587
H      -2.07848892     -0.07176219      1.08469067
H      -3.92200156      0.84039661     -0.35014465
H      -4.53413920     -0.80427307     -0.59140803
H      -5.79652069      0.47098465      1.15848120
H      -4.31356272      0.58879120      2.13506437
H      -5.63329206     -1.16011496      2.73550235
H       0.68107389      1.01347938      1.57182130
H       2.88086591      0.00812407      2.05716721
