30
Cc1ccc(S(=O)(=O)Nc2nnc(S(N)(=O)=O)s2)cc1
C      -5.64202267     -0.99968134     -0.80865582
C      -4.28981388     -0.36790961     -0.64810360
C      -4.13584085      0.78320201      0.13718929
C      -2.87590907      1.35840076      0.31227520
C      -1.76250264      0.76641652     -0.28777555
S      -0.15320484      1.48952057     -0.08763452
O       0.54371833      1.34972511     -1.34683924
O      -0.31430941      2.77397628      0.55889143
N       0.50450711      0.45563550      1.08175657
C       1.92296314      0.24697660      0.84503222
N       2.81349477      0.92116943      1.53658093
N       4.10344091      0.54284056      1.21021132
C       4.09689776     -0.42799657      0.31741945
S       5.53078094     -1.20675542     -0.34169511
N       6.87992356     -0.37855340      0.24800662
O       5.49540948     -0.97016703     -1.76664391
O       5.55772688     -2.53027012      0.23760169
S       2.55760632     -0.96496089     -0.17999548
C      -1.89917027     -0.38252034     -1.07140024
C      -3.16203091     -0.95153290     -1.24161436
H      -6.43330743     -0.24360377     -0.77113186
H      -5.72376835     -1.50703523     -1.77565979
H      -5.81076253     -1.72903059     -0.01049763
H      -5.00112570      1.24208539      0.61201492
H      -2.77788712      2.26048078      0.91189696
H       0.41134866      0.94245067      1.97576313
H       6.86291345     -0.30103432      1.26514362
H       6.99964665      0.51518664     -0.22911274
H      -1.03474310     -0.83633049     -1.55095888
H      -3.26397923     -1.85068479     -1.84640624
