60
CN(C)CC1CC2C3CC=C4CC(O)CCC4(C)C3CCC2(C)C1=O
C       5.94626030      1.57454908     -1.80153828
N       5.05697578      1.32647608     -0.66207314
C       5.77787556      1.58770792      0.58649001
C       4.54463052     -0.05706273     -0.71967872
C       3.41306395     -0.32906221      0.27219067
C       2.20418792      0.58819710      0.10648103
C       1.02033617     -0.18675317      0.71425849
C      -0.33025679      0.38087464      0.19523477
C      -0.73885348      1.58489155      1.06706873
C      -2.17608385      1.98127140      0.95944148
C      -3.12553627      1.26645541      0.33095369
C      -4.55137809      1.78160846      0.26823736
C      -5.59224522      0.70891622      0.60780936
O      -5.54671273      0.36877352      1.99473825
C      -5.37391051     -0.55596466     -0.21599727
C      -3.95199252     -1.09697931     -0.04446303
C      -2.82898830     -0.06759331     -0.36503521
C      -2.80444403      0.21965051     -1.88855685
C      -1.45736395     -0.67492638      0.14460735
C      -1.03792486     -1.96370389     -0.60812857
C       0.46437514     -2.10248648     -0.84673668
C       1.28389712     -1.66939518      0.36293512
C       1.05742397     -2.58473764      1.57338778
C       2.77364129     -1.67671954      0.03902566
O       3.38943660     -2.67368177     -0.32168266
H       6.30387144      2.61036727     -1.79280467
H       5.40837973      1.43994012     -2.74663796
H       6.81633617      0.90791579     -1.80008002
H       5.11212369      1.51040597      1.45171583
H       6.16847200      2.61184279      0.59665257
H       6.61827891      0.89922231      0.73112814
H       4.16119434     -0.25342626     -1.73090505
H       5.35911751     -0.77739834     -0.56265827
H       3.76684195     -0.31470925      1.30946167
H       2.35361149      1.54925294      0.61005159
H       2.02849873      0.79467164     -0.95721999
H       1.07484235     -0.07546915      1.80626742
H      -0.18287544      0.74793624     -0.82895976
H      -0.54665280      1.37338497      2.12642661
H      -0.11332644      2.44555235      0.80078634
H      -2.43610378      2.92207093      1.44080580
H      -4.74220352      2.16090577     -0.74282461
H      -4.67851018      2.63070531      0.95156758
H      -6.59575122      1.10235628      0.41108061
H      -5.45970967      1.19320363      2.50203552
H      -6.07985369     -1.33199087      0.10379543
H      -5.57336019     -0.35342345     -1.27429908
H      -3.84384519     -1.44803385      0.99080736
H      -3.84309454     -1.98620582     -0.67771565
H      -3.70257428      0.75003692     -2.22365314
H      -2.76196700     -0.69603206     -2.48480135
H      -1.94981651      0.84260818     -2.17162702
H      -1.61936960     -0.97776310      1.19150158
H      -1.38882112     -2.82623256     -0.02586716
H      -1.53050299     -2.06444693     -1.57754498
H       0.74459212     -1.49949707     -1.72130431
H       0.69401791     -3.13994428     -1.12126072
H       0.04276623     -2.49704096      1.97276316
H       1.75336641     -2.34632917      2.38658832
H       1.22561347     -3.63474193      1.30775887
