24
OCC1OCOC2COCOC12
O       2.56061436     -1.43341954      0.90677617
C       2.33054952     -1.13131596     -0.47105944
C       1.27080542     -0.03494180     -0.60318762
O       1.71818085      1.09267718      0.16678055
C       0.82966818      2.19419709     -0.01481846
O      -0.55006143      1.85861585      0.08363817
C      -0.74319356      0.60365810      0.74768623
C      -2.23867408      0.34503543      0.92421367
O      -2.86842383     -0.02631045     -0.30068530
C      -2.22703284     -1.15048138     -0.87858179
O      -0.88522094     -0.85883209     -1.23396769
C      -0.09754202     -0.51345424     -0.08401805
H       2.78426980     -0.57714481      1.32136200
H       3.28421501     -0.79516151     -0.89117184
H       2.02583892     -2.04813660     -0.98448774
H       1.21435567      0.25555726     -1.66076821
H       1.05919089      2.94079037      0.75159499
H       1.00939295      2.65358624     -0.99256020
H      -0.27983443      0.67554685      1.74041829
H      -2.74252302      1.24679724      1.28710813
H      -2.40727590     -0.45359455      1.65634420
H      -2.27381284     -2.01790244     -0.20844924
H      -2.76598486     -1.40929328     -1.79447320
H      -0.00750182     -1.41647296      0.53230639
