32
OC(=S)CCCCCCCCC(O)=S
O      -4.14339829      1.00737382     -2.20650892
C      -4.58623739     -0.15369468     -1.70261522
S      -5.22647668     -1.24309484     -2.76909442
C      -4.42459005     -0.31455491     -0.22329116
C      -3.13921757     -1.04987038      0.15768971
C      -1.87815111     -0.22588194     -0.11741670
C      -0.62157345     -0.96174121      0.35298925
C       0.64035137     -0.14190352      0.07421235
C       1.89508967     -0.87801591      0.54888316
C       3.19521658     -0.15247135      0.19307497
C       3.35494273      1.19028084      0.90533900
C       4.71265382      1.76529455      0.65492495
O       5.69371435      1.28051897      1.43003689
S       5.13154971      2.89277316     -0.47900488
H      -4.29080453      1.00249485     -3.16766065
H      -4.45373595      0.67447509      0.24956615
H      -5.28765721     -0.86866989      0.16598493
H      -3.07605773     -2.00537024     -0.37676230
H      -3.18337748     -1.28650584      1.22798817
H      -1.95097462      0.74057296      0.39581528
H      -1.79304932     -0.01865848     -1.19026943
H      -0.69586460     -1.16663548      1.42791893
H      -0.55125346     -1.93009937     -0.15723570
H       0.55771404      0.82561345      0.58181600
H       0.71685987      0.05960433     -1.00105482
H       1.92238276     -1.87342175      0.08833324
H       1.84577413     -1.03359085      1.63347596
H       3.25146864     -0.00739212     -0.89300113
H       4.03663794     -0.80590501      0.45704898
H       2.59073661      1.90216285      0.57466171
H       3.22939007      1.06528640      1.98762289
H       6.52793710      1.71102648      1.17653281
