15
O=C(O)c1ccccc1F
O       2.79384307      0.91159411     -0.64779767
C       2.08428312      0.02609843     -0.21263788
O       2.62618760     -1.13493357      0.20535708
C       0.61085579      0.04117077     -0.06609986
C      -0.08955861     -1.05785949      0.45531921
C      -1.48141443     -1.01235834      0.58097702
C      -2.18234839      0.12735325      0.18816786
C      -1.49191349      1.22187425     -0.33037562
C      -0.10347175      1.17501970     -0.45512685
F       0.51559784      2.25179219     -0.95902660
H       3.58637848     -1.00474435      0.05268255
H       0.43887015     -1.95600172      0.76735058
H      -2.01761282     -1.86796476      0.98596587
H      -3.26487568      0.16291702      0.28582763
H      -2.02482087      2.11604251     -0.64032019
