16
COP(C)(=O)OC
C       2.27491487     -1.01420904     -0.43369932
O       1.54906962      0.18968609     -0.58508758
P      -0.05696963      0.08390158     -0.48128415
C      -0.61606829      1.73731270     -0.81705332
O      -0.66270058     -0.98609224     -1.33648131
O      -0.29594069     -0.12020164      1.10164918
C      -1.59844512     -0.48180147      1.51563650
H       2.04682490     -1.69512013     -1.25799205
H       2.03036657     -1.48909839      0.52025842
H       3.34312840     -0.78411481     -0.45059801
H      -0.37109033      2.02141264     -1.84431093
H      -0.14012022      2.45394043     -0.14172701
H      -1.69931470      1.81578210     -0.69164503
H      -2.33048566      0.24337545      1.15107408
H      -1.62795929     -0.49522476      2.60799693
H      -1.84520984     -1.47954850      1.14326360
