15
O=C(O)c1cc[n+]([O-])cc1
O       2.78640176     -1.05403140      0.48766637
C       2.12115037     -0.10322618      0.12378867
O       2.69004284      1.05105846     -0.26133805
C       0.64034434     -0.06321437      0.04871380
C      -0.07333787     -1.20432173      0.42322158
C      -1.46766561     -1.19481775      0.36250166
N      -2.16600420     -0.07726473     -0.06175367
O      -3.43072453     -0.08249343     -0.11192767
C      -1.44631019      1.04714604     -0.43010490
C      -0.05123549      1.07159362     -0.38137061
H       3.65277498      0.88872231     -0.16428153
H       0.44449348     -2.09952476      0.76135677
H      -2.10583684     -2.02358023      0.62956940
H      -2.06989790      1.86957479     -0.74683359
H       0.47580488      1.97437935     -0.67920823
