17
Oc1cccc2ccnnc12
O      -1.99977658      2.08216226     -0.41120241
C      -1.39939263      0.86198458     -0.21323931
C      -2.22952412     -0.25033545     -0.10268683
C      -1.66392847     -1.50522441      0.09827631
C      -0.27672903     -1.63431513      0.18639368
C       0.55484415     -0.50363590      0.07339615
C       1.94657185     -0.59700572      0.15684551
C       2.69254017      0.55767110      0.03620828
N       2.12857856      1.76308957     -0.15787548
N       0.76625408      1.86165998     -0.24054448
C      -0.01076580      0.76631561     -0.12962933
H      -1.26976176      2.73230858     -0.46338570
H      -3.30726582     -0.13374476     -0.17338626
H      -2.30173049     -2.38138838      0.18617805
H       0.15180374     -2.62204950      0.34372640
H       2.44336033     -1.54835404      0.31264858
H       3.77492182      0.55086162      0.09207449
