15
O=c1ccc(Br)ccc1O
O      -2.13676480      1.63605046      0.12564173
C      -1.12860330      0.95173526      0.07043219
C       0.19518572      1.67862322      0.07349693
C       1.39737258      1.09745683      0.01858456
C       1.72228960     -0.20677513     -0.04957966
Br      3.61187252     -0.56745992     -0.11019335
C       0.92968158     -1.29579478     -0.08180747
C      -0.39894128     -1.46635318     -0.05890382
C      -1.36730307     -0.55269470      0.00603866
O      -2.69533449     -0.96172543      0.01784260
H       0.14061840      2.76240177      0.12514113
H       2.22803880      1.80789469      0.03233210
H       1.46255871     -2.25129361     -0.13858735
H      -0.74533796     -2.50194653     -0.09900445
H      -3.21533300     -0.13011895      0.06856618
