42
CC(=O)c1ccc(S(=O)(=O)NC(=O)NC2CCCCC2)cc1
C       5.95078022     -2.24316502      0.90277058
C       5.50913199     -1.58962613     -0.38042729
O       5.95733570     -1.95227869     -1.46635061
C       4.50534578     -0.48500020     -0.32327541
C       4.14668897      0.15272983     -1.52150519
C       3.20815438      1.18772751     -1.52234188
C       2.61646664      1.57890980     -0.31891045
S       1.44756168      2.91592862     -0.31013502
O       1.34661807      3.44993667      1.02915894
O       1.77727331      3.77966890     -1.42640251
N       0.01424874      2.19011373     -0.72841674
C      -0.60499775      1.18475901     -0.00912181
O      -0.13581476      0.68787405      1.00058278
N      -1.79109536      0.80878838     -0.57096288
C      -2.68050863     -0.13788608      0.08722813
C      -3.50299082      0.55684472      1.18123292
C      -4.49447786     -0.40181754      1.83568970
C      -5.39575150     -1.07247495      0.80345657
C      -4.58314248     -1.76564603     -0.28594396
C      -3.59452438     -0.80759680     -0.94489353
C       2.97879512      0.96476381      0.88303474
C       3.91763338     -0.07173776      0.87963918
H       6.71862069     -2.99053039      0.67927242
H       5.10793366     -2.75221055      1.37720930
H       6.38936095     -1.50180832      1.57570912
H       4.60365020     -0.15314079     -2.46191854
H       2.95279185      1.68007786     -2.45801120
H      -0.33676180      2.49493612     -1.62525893
H      -2.18673494      1.42021800     -1.26767574
H      -2.05774936     -0.91019581      0.55772098
H      -4.04862404      1.40730567      0.75158815
H      -2.83968787      0.97241869      1.94926526
H      -5.10815444      0.14241288      2.56235622
H      -3.94430510     -1.16959590      2.39353211
H      -6.04553094     -1.80209786      1.29964500
H      -6.05023735     -0.31970794      0.34698347
H      -4.03671567     -2.61186993      0.14838107
H      -5.25879597     -2.17713384     -1.04421584
H      -2.99057109     -1.35300264     -1.68036438
H      -4.14895106     -0.04338465     -1.50547950
H       2.52131464      1.27578913      1.82152865
H       4.16641720     -0.53929558      1.82813549
