42
CC(=O)C(N=Nc1ccc(S(=O)(=O)[O-])cc1[N+](=O)[O-])C(=O)Nc1ccccc1Cl.[Ca+2]
C       0.96179812      3.69634097     -1.62020300
C       0.89531176      3.66316003     -0.11163582
O       0.81444674      4.71337737      0.53397195
C       0.88857344      2.30920901      0.57200889
N      -0.24203608      1.52966402      0.02664130
N      -1.30688683      1.73124050      0.65009858
C      -2.27943368      0.79901839      0.23837493
C      -2.98181924      1.01624806     -0.95767116
C      -3.96590099      0.11883293     -1.37900783
C      -4.25949184     -1.00045135     -0.59445603
S      -5.53109073     -2.17801059     -1.11921962
O      -6.32246996     -2.32239834      0.09793701
O      -6.19106996     -1.48283795     -2.21941377
O      -4.71277296     -3.32647173     -1.49245969
C      -3.59804542     -1.23402872      0.61267716
C      -2.61139820     -0.32913783      1.01038451
N      -1.91268884     -0.57251372      2.26054692
O      -0.67556662     -0.46053595      2.26515920
O      -2.59570985     -0.87767142      3.24768160
C       2.17350990      1.52098538      0.33596851
O       3.22830685      2.09490783      0.06978007
N       2.02365238      0.14989089      0.47549459
C       3.00524056     -0.85789737      0.30979222
C       4.36807964     -0.57897370      0.16315225
C       5.29920275     -1.61355852      0.01215010
C       4.88184669     -2.94146327      0.00417413
C       3.52901153     -3.23894092      0.14570381
C       2.59847378     -2.20590774      0.29692452
Cl      0.92978164     -2.64404944      0.42333341
Ca      0.00000000      0.00000000      0.00000000
H       1.11627805      4.72674606     -1.95408509
H       1.79679959      3.09279009     -1.98224178
H       0.02274148      3.32835959     -2.04020750
H       0.78967946      2.45360893      1.65594385
H      -2.76153421      1.88864021     -1.56744537
H      -4.50397167      0.28450028     -2.31026052
H      -3.85925194     -2.10818543      1.20554806
H       1.07867359     -0.19138764      0.66364791
H       4.74742869      0.43776656      0.17596511
H       6.35452015     -1.37395667     -0.09690723
H       5.60716962     -3.74195340     -0.11443940
H       3.20061261     -4.27495541      0.13186859
