50
CC(C)(C)C1CCC(CC2=C(O)C(=O)c3ccccc3C2=O)CC1
C      -3.79929606     -1.05722364     -1.50229385
C      -4.09585936     -0.54360376     -0.08040742
C      -4.50118057     -1.75277220      0.79152258
C      -5.32115992      0.39428481     -0.15486084
C      -2.87011792      0.20841931      0.56384623
C      -2.46489153      1.49247174     -0.19328137
C      -1.29910154      2.22029803      0.47848748
C      -0.06340982      1.33093514      0.68051730
C       0.65326140      1.05865836     -0.66478639
C       1.98527555      0.35565056     -0.52483065
C       2.18787372     -0.92631493     -0.86268905
O       1.16410077     -1.71977841     -1.35505893
C       3.51188419     -1.58677736     -0.72380146
O       3.62788169     -2.76456220     -1.04925049
C       4.63077466     -0.79706793     -0.19462955
C       5.88702936     -1.39556341     -0.03325133
C       6.95422964     -0.64879882      0.46740246
C       6.76920585      0.69141710      0.80534236
C       5.51660115      1.28689979      0.64330606
C       4.44197618      0.53985530      0.14193271
C       3.12271574      1.18151385     -0.02740277
O       2.98229480      2.37057480      0.23577964
C      -0.47206556      0.05536464      1.43066706
C      -1.63035369     -0.69071610      0.76601370
H      -3.55342531     -0.24062395     -2.18794531
H      -2.97015465     -1.77127442     -1.51354854
H      -4.67215519     -1.57369470     -1.91944507
H      -5.43170419     -2.20692835      0.43087582
H      -4.66248664     -1.45226518      1.83270171
H      -3.74121824     -2.54048711      0.77708002
H      -5.17189254      1.20579180     -0.87418527
H      -5.53765299      0.83925557      0.82264302
H      -6.21738136     -0.14966951     -0.47594779
H      -3.19064990      0.52698696      1.56745909
H      -2.19491444      1.25949024     -1.22840195
H      -3.30715655      2.19079525     -0.23676444
H      -1.03464815      3.10797853     -0.10854082
H      -1.63392680      2.58817306      1.45733186
H       0.62978058      1.88482607      1.32688790
H      -0.00415222      0.49236464     -1.33427582
H       0.82144524      2.01227861     -1.18349199
H       1.57305609     -2.59837265     -1.51465108
H       6.03798653     -2.44120691     -0.29626177
H       7.93052271     -1.11213775      0.59331261
H       7.60082569      1.27482157      1.19502757
H       5.38223177      2.33445643      0.90900715
H       0.38186215     -0.62065115      1.54751914
H      -0.77731769      0.33142235      2.44888589
H      -1.29479798     -1.09932952     -0.19183393
H      -1.87974467     -1.54516456      1.40366669
