58
CC#Cc1cncc(-c2cccc(C3(c4cc(C)c(OC)c(C)c4)N=C(C)C(N)=N3)c2)c1
C       9.20856322     -0.02116904     -1.84524954
C       7.79345879      0.33544625     -1.74850753
C       6.63148859      0.62865399     -1.66849755
C       5.24987470      0.97885762     -1.57188100
C       4.67861800      1.88415926     -2.45439883
N       3.37854054      2.25652301     -2.41734190
C       2.61940017      1.69185966     -1.44568350
C       3.08205232      0.76981949     -0.50255690
C       2.19547231      0.20276601      0.52311788
C       2.54258725      0.24057233      1.88178539
C       1.68955904     -0.28016706      2.85491500
C       0.47291239     -0.85296660      2.48588824
C       0.09185747     -0.92485334      1.13699577
C      -1.26405809     -1.52644625      0.71330944
C      -2.29508774     -0.39015361      0.54075281
C      -3.00486189      0.10868676      1.64848857
C      -3.92225499      1.16273540      1.52010200
C      -4.65561815      1.65531373      2.73465297
C      -4.09257614      1.75959601      0.26231633
O      -4.96863248      2.80911929      0.12889356
C      -4.27975647      4.04813052      0.30420806
C      -3.43695967      1.25868343     -0.87192531
C      -3.64466764      1.85186011     -2.23529680
C      -2.52506530      0.20351209     -0.71359395
N      -1.75504696     -2.49750410      1.75088862
C      -1.84312337     -3.61327287      1.11294450
C      -2.27052109     -4.91240767      1.68977616
C      -1.44512262     -3.48765156     -0.31131733
N      -1.45439030     -4.50540504     -1.21579039
N      -1.09665327     -2.27903796     -0.57875689
C       0.96711219     -0.38527036      0.17215267
C       4.43699402      0.41837639     -0.58650964
H       9.72600290      0.62907573     -2.55711226
H       9.70221460      0.07854880     -0.87377161
H       9.32713315     -1.05542186     -2.18176958
H       5.26476628      2.35163440     -3.24072558
H       1.58321993      2.02423808     -1.43970365
H       3.47868662      0.69722906      2.19698464
H       1.96860027     -0.23164049      3.90416944
H      -0.18351438     -1.24155468      3.26155298
H      -2.83791148     -0.33600883      2.62867042
H      -4.72712004      0.87053592      3.49562652
H      -4.13111354      2.51129933      3.16941728
H      -5.68015157      1.94912954      2.48443001
H      -3.81479934      4.11450889      1.29331892
H      -3.52715420      4.20107456     -0.47561674
H      -5.01659607      4.85289064      0.22313917
H      -3.46300696      1.10609565     -3.01695045
H      -4.67454470      2.20019390     -2.36511315
H      -2.95949781      2.69097147     -2.38904801
H      -1.98389402     -0.16354445     -1.58394335
H      -2.57646236     -4.77985314      2.73046976
H      -3.11295936     -5.31208721      1.12069607
H      -1.43872929     -5.62036970      1.65057713
H      -1.37278431     -4.17242141     -2.17204539
H      -2.17043850     -5.21365279     -1.10691302
H       0.67991890     -0.43531663     -0.87797593
H       4.85604044     -0.30392065      0.11071025
