11
O=C([O-])/C=C\C(=O)[O-].[Fe+2]
O       0.82795719     -1.23239093     -1.67240822
C       1.39223434     -0.38747153     -0.92250778
O       2.63530370     -0.20047752     -0.72725591
C       0.50843883      0.72297485     -0.34535861
C      -0.61704951      0.61218438      0.38073160
C      -1.30740883     -0.65522696      0.89488757
O      -0.61087657     -1.43616067      1.60173546
O      -2.56518012     -0.66146458      0.70440503
Fe      0.00000000      0.00000000      0.00000000
H       0.87587407      1.71744179     -0.57845924
H      -1.13929310      1.52059117      0.66423011
