18
O=C1NC(=O)C2C=CC=CC12
O       1.80975277     -2.17901943      0.92314679
C       1.46866509     -1.06834237      0.54485489
N       1.93052838      0.09501011      1.06462981
C       1.38332300      1.19758856      0.49739139
O       1.63934080      2.34561122      0.82837133
C       0.42725078      0.77693011     -0.60084486
C      -0.93148576      1.38285717     -0.36395504
C      -2.02578087      0.64173560     -0.14145619
C      -1.97157170     -0.79758264     -0.11130710
C      -0.82430263     -1.46298415     -0.30434391
C       0.48540182     -0.76705078     -0.56850361
H       2.58238268      0.13561962      1.83127766
H       0.82673051      1.13936598     -1.55569993
H      -1.00690539      2.46825753     -0.37387750
H      -2.99007637      1.11431340      0.02789170
H      -2.89787176     -1.33382895      0.07917255
H      -0.81788560     -2.55044566     -0.26875194
H       0.91250425     -1.13803532     -1.50799602
