31
O=C1NCCCC1N1C(=O)c2ccccc2S1(=O)=O
O      -0.88090274     -0.50687535      2.09175755
C      -1.68183007     -0.47165778      1.15748173
N      -3.00695856     -0.22164243      1.41152263
C      -3.92966758      0.25462090      0.40652186
C      -3.67189232     -0.37318348     -0.95404903
C      -2.20965768     -0.16306172     -1.33273363
C      -1.29883229     -0.81385943     -0.29025196
N       0.12689028     -0.50505031     -0.51971673
C       1.16624190     -1.35770937     -0.06255386
O       1.05541418     -2.55045201      0.15108410
C       2.40573746     -0.58077195      0.11332697
C       3.63431807     -1.07484606      0.52317501
C       4.69978521     -0.17513780      0.63987044
C       4.52460895      1.19134808      0.35029998
C       3.28212035      1.67998323     -0.05937295
C       2.24759395      0.76827315     -0.16502476
S       0.61581409      1.10477521     -0.65509910
O       0.62916069      1.46400929     -2.05434524
O      -0.02293028      1.91382790      0.35412038
H      -3.17191140      0.04591624      2.37593158
H      -3.81805108      1.34341340      0.35382940
H      -4.94378710      0.03247715      0.75224191
H      -4.32667850      0.08011491     -1.70599434
H      -3.89750079     -1.44607956     -0.92463310
H      -2.01167543     -0.59246699     -2.32184549
H      -2.02922516      0.91445970     -1.41483524
H      -1.42906133     -1.90142990     -0.37858818
H       3.76415141     -2.12921584      0.75118344
H       5.67587002     -0.53450375      0.96159997
H       5.36781209      1.87285746      0.45008774
H       3.13504365      2.73186709     -0.28355450
