23
CCCCNP(N)(N)=S
C      -3.49505025      0.65421167     -0.32137457
C      -2.09916239      0.49394513      0.26080380
C      -1.42185835     -0.77781335     -0.25579149
C      -0.03887773     -1.01328688      0.35907226
N       0.89720147      0.04467354     -0.00085861
P       2.45127624     -0.03320345      0.47548147
N       2.88681684      1.52210976      0.28873625
N       3.13513014     -0.65170097     -0.86797570
S       2.95509392     -0.86065420      2.13018328
H      -4.13355244     -0.19227793     -0.04917270
H      -3.45907652      0.72095082     -1.41342960
H      -3.96195016      1.56781991      0.05976028
H      -2.16802123      0.46008162      1.35430738
H      -1.50413903      1.37618464     -0.00050801
H      -2.05438927     -1.64326209     -0.02186708
H      -1.34015727     -0.73593007     -1.34935894
H       0.34414947     -1.97651035      0.00346573
H      -0.13686427     -1.07461182      1.44812906
H       0.86029678      0.17182648     -1.00690603
H       2.56293131      2.08589624      1.06747980
H       2.47083769      1.93447693     -0.53617595
H       4.12094253     -0.40631294     -0.88836324
H       3.12842250     -1.66661268     -0.84170402
