33
CCN1c2ncccc2C(=O)N(C)c2cccnc21
C       0.15551278     -3.21530064      1.33541805
C      -0.53487404     -2.46900347      0.19369398
N      -0.20170644     -1.03093069      0.21294086
C       1.13525007     -0.74423847     -0.14128313
N       1.87224956     -1.69167970     -0.78963692
C       3.14309878     -1.40755918     -1.14887945
C       3.75757268     -0.20260081     -0.88769347
C       3.01959642      0.75891115     -0.21334255
C       1.68993008      0.49515829      0.15916134
C       0.99667903      1.51565156      0.96610177
O       1.70620676      2.14672929      1.75720011
N      -0.35049391      1.83836703      0.76583878
C      -0.83794811      3.01805166      1.47716673
C      -1.26063566      1.16268790     -0.11331167
C      -2.31477819      1.89006434     -0.69840014
C      -3.25860482      1.26406240     -1.50367725
C      -3.13781995     -0.09168383     -1.69602611
N      -2.15576415     -0.83241724     -1.14814475
C      -1.21401713     -0.22491203     -0.36997841
H      -0.18462219     -4.25563354      1.36199816
H      -0.08306151     -2.75474541      2.30018528
H       1.24398404     -3.22608677      1.23096503
H      -1.60909819     -2.61525294      0.37354853
H      -0.31130578     -2.93686859     -0.77410720
H       3.66710208     -2.20646909     -1.66573390
H       4.78391241     -0.02036828     -1.18429624
H       3.47927651      1.71218926      0.03927416
H      -1.88227713      2.88355958      1.77741589
H      -0.26402412      3.20128234      2.39080410
H      -0.73394531      3.89282925      0.82749560
H      -2.40615336      2.96313345     -0.55810412
H      -4.06457001      1.82321647     -1.96491073
H      -3.84467120     -0.64014329     -2.31168232
