20
Cc1cccc([N+](=O)[O-])c1C
C      -2.46251606     -0.12012856     -0.01070879
C      -1.03931438      0.36616925      0.07878328
C      -0.81462222      1.72868136      0.35549134
C       0.47710063      2.24564356      0.45553952
C       1.57094318      1.40541610      0.28959589
C       1.35676227      0.04807012      0.01198095
N       2.54381501     -0.78933208     -0.11507839
O       2.61027213     -1.79959947      0.59845422
O       3.41389569     -0.41684773     -0.91458010
C       0.06107209     -0.49701582     -0.12985104
C      -0.15048341     -1.95497792     -0.45101544
H      -2.71812653     -0.34933509     -1.04990259
H      -2.60398505     -1.01112587      0.60948202
H      -3.16841530      0.63572125      0.35013424
H      -1.65811717      2.40310612      0.49877994
H       0.62541009      3.30121746      0.67069590
H       2.57808597      1.80655505      0.38093101
H      -0.13998129     -2.54704673      0.46918891
H       0.61946346     -2.32954255     -1.13328749
H      -1.10125913     -2.12562846     -0.96463336
