31
CCCCCOC(=O)c1ccc(O)cc1
C       5.78091510     -0.54877744     -0.43694356
C       4.32024428     -0.63068841     -0.85076072
C       3.39394680     -0.15073390      0.26616522
C       1.92813176     -0.23461364     -0.15347146
C       0.99656583      0.24245554      0.95526018
O      -0.35151372      0.13067501      0.47950033
C      -1.29190072      0.52531197      1.37328169
O      -1.07571891      0.94765262      2.49836322
C      -2.65750692      0.37684165      0.79996995
C      -2.88153766     -0.11073773     -0.49533949
C      -4.18551934     -0.22932344     -0.98265550
C      -5.25990020      0.13744173     -0.17967552
O      -6.51289587      0.00389609     -0.69876277
C      -5.05667297      0.62313599      1.10788081
C      -3.75304065      0.74253336      1.59725522
H       6.42536617     -0.89669206     -1.25030066
H       5.97546387     -1.17269464      0.44124525
H       6.06339930      0.48114038     -0.19651154
H       4.07907187     -1.66683390     -1.11526659
H       4.16652066     -0.02211080     -1.74949761
H       3.64199541      0.88463439      0.52981431
H       3.55455259     -0.75995151      1.16398864
H       1.75590282      0.36625500     -1.05527648
H       1.66914798     -1.26542332     -0.42608178
H       1.21094580      1.28844806      1.20401652
H       1.12215790     -0.38146192      1.84794841
H      -2.05360023     -0.40203359     -1.13659260
H      -4.36215371     -0.60694433     -1.98628031
H      -7.15956853      0.29439999     -0.03458613
H      -5.88990992      0.91162412      1.74111413
H      -3.59288879      1.12257473      2.60488353
