47
CN(C)C(CSS(=O)(=O)c1ccccc1)CSS(=O)(=O)c1ccccc1
C       1.52725598     -0.41630626     -1.67455630
N       1.53630646      0.73006212     -0.76039881
C       1.98000481      1.93426734     -1.46536752
C       0.23993720      0.87326476     -0.04614511
C       0.44561925      1.57256104      1.32427493
S       1.38252364      0.55693743      2.50663493
S       3.37422922      1.13468233      2.23072028
O       3.38827935      2.39019582      1.50311229
O       4.02189849      1.03382727      3.52513667
C       4.11797302     -0.11786170      1.21255790
C       3.94282475     -1.46903784      1.52989105
C       4.54056561     -2.44487574      0.73171546
C       5.31563161     -2.07179797     -0.36731798
C       5.49992787     -0.72229734     -0.67199305
C       4.90432618      0.25969500      0.11974505
C      -0.85779546      1.59276951     -0.87741437
S      -2.54833762      1.43943379     -0.21786718
S      -2.92553554     -0.59536631     -0.49521479
O      -2.45600164     -0.94834329     -1.82041551
O      -2.43657580     -1.28728539      0.68023104
C      -4.69696301     -0.68578878     -0.49142511
C      -5.37579478     -0.86412476      0.71818254
C      -6.76771782     -0.95295507      0.71597180
C      -7.47129235     -0.87299806     -0.48716560
C      -6.78762505     -0.70911670     -1.69336083
C      -5.39576486     -0.61916570     -1.70085474
H       0.79392024     -0.30304676     -2.48008968
H       2.51446272     -0.55394578     -2.12927379
H       1.30586903     -1.34157271     -1.13152792
H       1.98420206      2.80814598     -0.80736433
H       3.00879550      1.80754068     -1.81999833
H       1.35705235      2.16454234     -2.33666871
H      -0.11522290     -0.14018076      0.17673520
H       0.89301720      2.56477453      1.21705364
H      -0.52480867      1.73416523      1.80413826
H       3.35796158     -1.77129206      2.39491352
H       4.40825330     -3.49756646      0.97044097
H       5.78279823     -2.83526575     -0.98482080
H       6.10940114     -0.43608545     -1.52572723
H       5.05375834      1.30947047     -0.12113218
H      -0.63895102      2.66470748     -0.93864553
H      -0.88001534      1.21445801     -1.90404003
H      -4.83401339     -0.93682837      1.65904769
H      -7.30569917     -1.08954900      1.65120298
H      -8.55655566     -0.94532174     -0.48551524
H      -7.34158981     -0.65663886     -2.62799434
H      -4.87053525     -0.50088652     -2.64624611
