20
C=Cc1ccc(S(=O)(=O)[O-])cc1.[Na+]
C       2.12504484     -2.52935551      1.52722122
C       0.84420472     -2.31008803      1.20286891
C       0.33353348     -1.05986562      0.62176059
C       0.84544323      0.19732710      0.98009203
C       0.31223659      1.36635772      0.42959356
C      -0.74101108      1.27872331     -0.48235524
S      -1.45922344      2.79381594     -1.17142634
O      -2.85770823      2.42697233     -1.38159039
O      -1.23167472      3.77567252     -0.11381982
O      -0.66509953      2.97488331     -2.38260515
C      -1.27972201      0.03957535     -0.83263082
C      -0.74229300     -1.12516060     -0.27809333
Na      0.00000000      0.00000000      0.00000000
H       2.89747995     -1.78310531      1.37246240
H       2.43016249     -3.48319585      1.94400511
H       0.11222416     -3.10038196      1.35018334
H       1.65353859      0.28628444      1.70010212
H       0.70425093      2.34156993      0.70683862
H      -2.11100025     -0.00752891     -1.53142964
H      -1.17038672     -2.08250016     -0.56267752
