47
CC(C)(C)n1cc(C(=O)O)c(=O)c2cc(F)c(N3CCNCC3)cc21
C      -3.32822257     -2.47903202      0.88694392
C      -1.97800145     -1.83105016      0.45214017
C      -1.01806732     -2.16899127      1.61696272
C      -1.58147725     -2.52559228     -0.86260222
N      -2.11319177     -0.32692411      0.23999225
C      -3.37090817      0.28004768      0.12976432
C      -3.66379187      1.58514064      0.21221379
C      -5.06949960      2.02840504      0.10272321
O      -5.99893501      1.26612523     -0.12162898
O      -5.25424322      3.35571344      0.27169144
C      -2.53586906      2.49757871      0.43197953
O      -2.74071947      3.69171002      0.64073045
C      -1.17181652      1.93821969      0.33797191
C      -0.10261356      2.83810592      0.35507535
C       1.18899901      2.36458346      0.19217254
F       2.18852835      3.25843062      0.25659138
C       1.45968349      1.00294356     -0.02100589
N       2.77650708      0.54532369     -0.20405082
C       3.51047182      1.18497418     -1.32337007
C       5.02188552      0.86460113     -1.24544249
N       5.32049890     -0.58051292     -1.16670607
C       4.60058098     -1.13642657     -0.00370635
C       3.07472971     -0.89235422     -0.05170442
C       0.34668772      0.12953062     -0.00904400
C      -0.98440353      0.54431021      0.20159507
H      -3.74918627     -1.97860698      1.76678025
H      -3.19553771     -3.53716952      1.14527277
H      -4.07440102     -2.46214093      0.08470404
H      -1.10668924     -3.22233806      1.91023502
H       0.03720362     -2.03045963      1.38317446
H      -1.24737870     -1.56077777      2.49972700
H      -1.53271832     -3.61292723     -0.73204474
H      -0.61297298     -2.20924133     -1.25159810
H      -2.31780989     -2.31716573     -1.64792852
H      -4.19288580     -0.40867419     -0.03892697
H      -4.42318015      3.85582592      0.46394007
H      -0.26024341      3.90445752      0.48898360
H       3.10755929      0.81366587     -2.27495846
H       3.40489798      2.27370512     -1.32794316
H       5.52155431      1.27488685     -2.12997912
H       5.46077116      1.36733390     -0.37450848
H       4.95879416     -1.02490416     -2.01021318
H       4.79043085     -2.21451362      0.04125641
H       5.01664879     -0.70469090      0.91518399
H       2.64188656     -1.27529002      0.88036085
H       2.64985882     -1.45686496     -0.89164368
H       0.54658572     -0.90897046     -0.21916084
