16
CC1CCOC1
C       1.86934319     -0.32321007      0.04435007
C       0.45261833     -0.02142627     -0.40494744
C      -0.59555826     -0.93412688      0.19349514
C      -1.85973911     -0.12643192     -0.01347716
O      -1.48499521      1.25712568      0.05829722
C      -0.05178729      1.34227470      0.03401065
H       1.96592880     -0.26803545      1.13390636
H       2.57343924      0.39210603     -0.39293578
H       2.16724841     -1.32897889     -0.26924334
H       0.39695972     -0.08893940     -1.49944050
H      -0.41716131     -1.07734839      1.26624453
H      -0.64199678     -1.91929303     -0.27890066
H      -2.28675496     -0.30532681     -1.00602404
H      -2.62350847     -0.34120395      0.73914854
H       0.28265898      1.60222755      1.04445785
H       0.25330472      2.14058710     -0.64894144
