15
C[S+](C)(C)=O.[I-]
C       0.60514660      1.51335968      0.16263058
S       0.03991319     -0.05515173     -0.42756816
C      -1.66853853     -0.20913773     -0.07422053
C       1.02481695     -1.33863285      0.27766816
O       0.20658662     -0.14623495     -1.93459316
I       0.00000000      0.00000000      0.00000000
H      -0.19133255      2.04041371      0.73979136
H       0.85269100      2.14166744     -0.70663675
H       1.48477913      1.43166353      0.83466908
H      -1.90693178     -0.43972385      0.97226635
H      -2.14321764      0.79585363     -0.27614250
H      -2.18681618     -0.91101381     -0.77498082
H       0.86127007     -2.31892127     -0.23692718
H       0.93050746     -1.42288359      1.36962605
H       2.09112566     -1.08125821      0.07441752
