26
CCC(CC)(CC(=O)O)C(=O)O
C      -2.56860537     -0.79244992     -0.07769399
C      -1.17486411     -0.97859565     -0.66785966
C      -0.01496594     -0.28733730      0.10861611
C      -0.27852833      1.23017389      0.32996407
C      -0.38940916      2.07231911     -0.93562194
C       1.28931091     -0.53352183     -0.69978395
C       2.54491389     -0.02308954     -0.03809292
O       2.67700469      0.39137768      1.09935166
O       3.60322535     -0.07904407     -0.87110870
C       0.14150688     -1.03406820      1.43586848
O       0.64235274     -2.14060235      1.57288773
O      -0.38012228     -0.40177593      2.50129311
H      -3.29411168     -1.37862490     -0.65172659
H      -2.61658980     -1.13194808      0.96080552
H      -2.88960047      0.25198875     -0.12032950
H      -0.98127587     -2.05857315     -0.72368193
H      -1.19195408     -0.62380112     -1.70585280
H       0.50974260      1.66312912      0.95728899
H      -1.20029447      1.37106411      0.90783868
H      -0.62472815      3.10845476     -0.66979832
H      -1.18501111      1.71329563     -1.59394971
H       0.54981316      2.08668446     -1.49528059
H       1.21182329     -0.06766007     -1.68881419
H       1.43674278     -1.60971690     -0.86051623
H       4.35236875      0.24483311     -0.32790582
H      -0.16874422     -0.99251160      3.25410246
