6
O.[K].[Li].[Ti]
O      -0.00570308      0.38515871     -0.00000000
K       0.00000000      0.00000000      0.00000000
Li      0.00000000      0.00000000      0.00000000
Ti      0.00000000      0.00000000      0.00000000
H      -0.79607794     -0.19467500     -0.00000000
H       0.80178102     -0.19048370      0.00000000
