57
CCC(C)C(N)C(=O)OCCOC(=O)C(C)c1ccc2cc(OC)ccc2c1
C      -5.48044058     -0.12848415      0.18149343
C      -4.21692817     -0.63427965     -0.50098789
C      -3.81073461      0.11942854     -1.78878839
C      -4.87906079     -0.08098739     -2.87525086
C      -3.49868049      1.62063754     -1.56282686
N      -3.11635366      2.26897323     -2.84540803
C      -2.33844924      1.80067644     -0.56351888
O      -1.15465514      1.77750105     -0.88124896
O      -2.82085565      1.99622558      0.69577831
C      -1.84227280      2.14024696      1.74339145
C      -1.61418990      0.79842342      2.43287930
O      -0.96038894     -0.08314159      1.51096179
C      -0.61580927     -1.30133498      2.01551052
O      -0.85805712     -1.67460955      3.15542737
C       0.10680780     -2.11366786      0.94792178
C       0.00265969     -3.61140609      1.24992338
C       1.52910844     -1.61344931      0.75270416
C       2.60214645     -2.07906818      1.52060967
C       3.89071579     -1.57218446      1.32600370
C       4.13926292     -0.57474878      0.37087080
C       5.43187501     -0.05397887      0.16879296
C       5.65984167      0.94711153     -0.77762956
O       6.86516001      1.52910813     -1.06118669
C       7.99740638      1.04360951     -0.35214990
C       4.58868570      1.43473290     -1.52572572
C       3.30120520      0.92799159     -1.33899901
C       3.06309813     -0.08075531     -0.39567689
C       1.77504769     -0.60460766     -0.19563396
H      -5.68171057     -0.72530100      1.07727531
H      -6.35237706     -0.21394083     -0.47314789
H      -5.38414463      0.91390002      0.49632837
H      -3.39177484     -0.60861063      0.21837831
H      -4.35951360     -1.69522316     -0.74391662
H      -2.89301511     -0.36955848     -2.14722586
H      -4.50809890      0.23030302     -3.85732856
H      -5.78390680      0.49697399     -2.66077820
H      -5.15962023     -1.13651581     -2.95889822
H      -4.37815804      2.15590282     -1.18935794
H      -2.89714953      3.24919358     -2.66270825
H      -2.22617619      1.86105220     -3.14559922
H      -2.25310640      2.85736399      2.46138879
H      -0.90478689      2.55620758      1.35700585
H      -0.98116225      0.94146816      3.31531711
H      -2.57399790      0.35637389      2.72267544
H      -0.44652035     -1.97011015      0.00857375
H       0.42448963     -3.86937362      2.22722199
H      -1.04761822     -3.92480476      1.26484673
H       0.52138197     -4.20361663      0.48803554
H       2.45631259     -2.83562015      2.28808975
H       4.70226706     -1.96047293      1.93813835
H       6.24606951     -0.44774678      0.76779360
H       7.89958146      1.23026939      0.72220833
H       8.16582233     -0.01885386     -0.55598843
H       8.87463448      1.59301486     -0.70677987
H       4.75646210      2.21698814     -2.26180909
H       2.48451764      1.33018373     -1.93458626
H       0.94515425     -0.20740919     -0.78151155
