29
CN(CCO)S(=O)(=O)C(F)(F)C(F)(F)C(F)(F)C(F)(F)F
C      -2.02518411     -2.19198821     -0.09949629
N      -1.88771784     -0.72314315      0.00048548
C      -2.35132902     -0.00546821     -1.22691197
C      -3.27806706      1.16211939     -0.87164661
O      -2.54544091      2.35871573     -0.63632071
S      -0.50353514     -0.13013027      0.80714996
O      -0.33571738     -0.94470412      1.99355056
O      -0.71226520      1.29976246      0.94150287
C       0.88174126     -0.43499107     -0.35125683
F       0.71312445     -1.63693065     -0.99673620
F       0.89618394      0.49594478     -1.35484209
C       2.21233662     -0.44956214      0.36944302
F       2.28018758     -1.49548714      1.23655888
F       3.17887164     -0.71579046     -0.56879963
C       2.54668510      0.84651019      1.06466284
F       2.38954388      1.89086047      0.20549359
F       1.68939207      1.07367983      2.09308222
C       3.97183473      0.80138598      1.58519607
F       4.29286303      1.94721323      2.23601633
F       4.16592587     -0.21302788      2.45878941
F       4.87902023      0.65365977      0.59211218
H      -1.67080955     -2.69520979      0.80342889
H      -3.08463399     -2.44745887     -0.20748833
H      -1.48297122     -2.57996743     -0.96567729
H      -2.91523574     -0.70811165     -1.85231823
H      -1.49320627      0.33129752     -1.81597132
H      -3.89868570      0.94564194      0.00387696
H      -3.94234453      1.36668964     -1.71716030
H      -1.97056675      2.19849011      0.14425138
