35
CCCOC(C)OCCc1ccccc1
C       4.72197896     -0.99617781      1.74487749
C       3.76405056     -0.13417054      0.94252084
C       2.94825998     -0.95977205     -0.04448181
O       2.07710322     -0.07737832     -0.74649797
C       1.26259206     -0.74532702     -1.70624386
C       2.00635719     -0.84462073     -3.03132972
O       0.07267519      0.00602558     -1.95358632
C      -0.77660301      0.05602265     -0.80662821
C      -2.02343520      0.86221732     -1.16191965
C      -2.99551166      0.93908142     -0.01319122
C      -4.03662076      0.00846960      0.10144270
C      -4.92342431      0.06940494      1.17756874
C      -4.77532526      1.05715797      2.14958283
C      -3.74010285      1.98452085      2.04713938
C      -2.85249422      1.92547509      0.97178770
H       5.29363036     -0.37816238      2.44424368
H       5.43097282     -1.51029556      1.08814172
H       4.17976543     -1.75087542      2.32343210
H       3.08848450      0.40146846      1.62030124
H       4.32302929      0.63856983      0.40119498
H       2.35430473     -1.70807689      0.49285554
H       3.61434442     -1.47078585     -0.74756082
H       0.98111446     -1.74888483     -1.36187709
H       2.91674231     -1.44372144     -2.94030734
H       1.36820742     -1.28479375     -3.80439752
H       2.30381358      0.15101504     -3.37976529
H      -0.24833196      0.52848192      0.02977178
H      -1.05338639     -0.96379265     -0.51306795
H      -1.73691845      1.87380227     -1.47783338
H      -2.51231520      0.42340417     -2.04147342
H      -4.16433248     -0.76863052     -0.64879955
H      -5.73069442     -0.65385467      1.25706972
H      -5.46675219      1.10461480      2.98657986
H      -3.62345141      2.75489705      2.80481115
H      -2.04772670      2.65469150      0.90529591
