18
OCC(CBr)(CBr)CBr
O      -2.25576300     -0.24260935     -0.22056067
C      -0.99791948     -0.55345050     -0.81126104
C       0.17163512      0.02139524      0.04931496
C      -0.00977443      1.55663114      0.05258457
Br      1.49854667      2.59103519      0.71223357
C      -0.04547429     -0.56891096      1.46804460
Br      1.44451514     -0.41078495      2.70816946
C       1.50398745     -0.47281068     -0.55218160
Br      1.81193446      0.09828148     -2.39493129
H      -2.94764690     -0.59474376     -0.80998881
H      -0.92478176     -1.64411201     -0.89313201
H      -1.00614744     -0.13660693     -1.82301641
H      -0.86204195      1.86326173      0.66832192
H      -0.18272161      1.94416020     -0.95694800
H      -0.89764700     -0.10995831      1.98004317
H      -0.22735816     -1.64846289      1.41627505
H       1.54114277     -1.56723718     -0.58372445
H       2.38551441     -0.12507748     -0.00924304
