17
CCCCO[N+](=O)[O-]
C      -2.69212105      0.37726610      0.31546309
C      -1.32760265      0.65649926     -0.29393614
C      -0.26658066     -0.29599955      0.25031636
C       1.10632031     -0.01987507     -0.35862757
O       2.02732779     -0.95036718      0.20406090
N       3.34145360     -0.78317094     -0.29428596
O       4.13932809     -1.58423793      0.18879852
O       3.52304933      0.11145535     -1.12177340
H      -2.66851894      0.49949983      1.40305448
H      -3.43660553      1.07061071     -0.08818637
H      -3.02075729     -0.64253461      0.09105851
H      -1.04311372      1.69307172     -0.07894323
H      -1.39339521      0.55737822     -1.38365383
H      -0.20298559     -0.20962307      1.34238485
H      -0.55052833     -1.33643751      0.04787666
H       1.05407243     -0.14983575     -1.44662211
H       1.41065744      1.00630042     -0.11843181
