40
C[C@@H](O)[C@H]1C(=O)N2C(C(=O)O)=C(SCCNC=N)C[C@H]12.O
C      -4.66910906      0.83139736      0.22851019
C      -3.94428962     -0.20002575      1.08111836
O      -4.49255288     -1.49107238      0.81665602
C      -2.43866638     -0.25247443      0.86433295
C      -1.94272915     -0.14532885     -0.58251394
O      -1.96563696     -0.86722138     -1.55245839
N      -1.33754311      1.06289776     -0.34599535
C       0.02607213      1.17741536     -0.54803907
C       0.57394320      1.29103439     -1.92223668
O       1.70106199      1.00142960     -2.28594210
O      -0.33940213      1.76971561     -2.78684672
C       0.71726562      1.12863138      0.60168595
S       2.41262985      1.29438959      0.81682861
C       2.92508444     -0.43906925      1.09568857
C       2.81209109     -1.34989834     -0.13374804
N       3.56585592     -0.85498170     -1.27171238
C       4.92332976     -0.81643409     -1.34514038
N       5.77157638     -1.53681184     -0.70656874
C      -0.20722204      0.96341306      1.77602060
C      -1.59128710      1.02630101      1.12219201
O       0.01081343      0.39766720      0.00000000
H      -4.30124561      1.84464718      0.41199979
H      -5.74301179      0.81032671      0.44462236
H      -4.56685602      0.61409331     -0.84016997
H      -4.14430123      0.01106304      2.13736116
H      -4.41450898     -1.67216807     -0.13925720
H      -2.01479864     -1.13098916      1.37161907
H       0.11131006      1.75864339     -3.65574881
H       3.96618694     -0.40815449      1.43468709
H       2.33575966     -0.85625142      1.91916074
H       3.14998622     -2.35880663      0.12913497
H       1.76194776     -1.45598263     -0.42853399
H       3.08867527     -0.07756428     -1.74703412
H       5.28602790     -0.06153786     -2.06416486
H       5.28100665     -2.21276333     -0.12253568
H      -0.08343786      1.78058099      2.49479921
H      -0.04572692      0.00874069      2.28675808
H      -2.16748537      1.90213808      1.44547069
H       0.75778077     -0.21958850      0.00000000
H      -0.76859419     -0.17807870      0.00000000
