11
O=C([O-])c1ccc(Cl)o1
O       2.51187573      1.74835218      0.15549688
C       2.14160318      0.54023474      0.05594119
O       2.88738290     -0.48585201     -0.02248503
C       0.58151172      0.26763443      0.02494283
C       0.00316102     -0.98495616     -0.07940195
C      -1.39655244     -0.78978791     -0.07175630
C      -1.59803501      0.56846395      0.03659810
Cl     -3.11797917      1.37341267      0.09271964
O      -0.40541074      1.21819649      0.09588480
H       0.55740126     -1.91133499     -0.15089676
H      -2.16495844     -1.54436339     -0.13704339
