12
CCC(N)=O
C      -1.69233822     -0.07638951     -0.13795972
C      -0.29839365      0.52436958     -0.15542757
C       0.78236159     -0.53409100     -0.15674516
N       2.05190604     -0.03326005     -0.16684271
O       0.58291683     -1.74174446     -0.14425723
H      -1.85882757     -0.70903335     -1.01613847
H      -2.44857593      0.71457091     -0.13767114
H      -1.84291747     -0.69445327      0.75337432
H      -0.16147178      1.15997835      0.72642131
H      -0.17797868      1.14526846     -1.05008452
H       2.25196987      0.94422740     -0.32322552
H       2.81134897     -0.69944307     -0.22416297
