22
O=[N+]([O-])c1ccc(N2CC2)c([N+](=O)[O-])c1
O       4.03961259     -0.54876606      1.75274551
N       3.59187929      0.28802844      0.95707371
O       4.24902155      1.21105724      0.45772777
C       2.17759007      0.17850460      0.57709110
C       1.39032918     -0.84903884      1.11460632
C       0.03774228     -0.95984196      0.75586587
C      -0.55846648     -0.05593266     -0.14057613
N      -1.91638410     -0.10918470     -0.54567272
C      -2.57659152     -1.40467479     -0.73590198
C      -2.95256891     -0.51832024      0.40789455
C       0.27280717      0.95867381     -0.65358078
N      -0.27744451      1.92226794     -1.58118698
O      -0.73530850      2.96596436     -1.09719887
O      -0.17990285      1.65675165     -2.78666263
C       1.62615194      1.09743936     -0.31627336
H       1.80929577     -1.57268793      1.81310320
H      -0.53757910     -1.77152656      1.19575348
H      -1.97892757     -2.28747645     -0.56502474
H      -3.21805135     -1.42263728     -1.60744667
H      -2.62798327     -0.75737582      1.40951002
H      -3.85357523      0.07570069      0.32603340
H       2.21835356      1.90307521     -0.74593742
