31
COP(=S)(OC)SCn1nnc2ccccc2c1=O
C       4.60278880      1.44676564      1.71468546
O       3.37318225      1.44304194      1.01421917
P       3.36104465      1.08580119     -0.57342315
S       4.55148716      2.22682412     -1.61585981
O       3.86975272     -0.45835464     -0.48413683
C       4.05172002     -1.18774762     -1.68371808
S       1.33059056      1.00478421     -1.09350942
C       0.65678148      0.08212437      0.30647531
N      -0.72538220     -0.29130000      0.07275186
N      -0.92565752     -1.38459340     -0.72432059
N      -2.07347773     -1.78817286     -1.00706639
C      -3.19282075     -1.10297819     -0.52225352
C      -4.46956490     -1.56077518     -0.86946387
C      -5.61589480     -0.90776404     -0.40508392
C      -5.49618531      0.21364192      0.41457262
C      -4.23140134      0.67948026      0.76790232
C      -3.09542421      0.01295397      0.29317262
C      -1.74508534      0.45442720      0.62951607
O      -1.58322409      1.42277371      1.36634975
H       4.39183908      1.35854785      2.78361890
H       5.23473932      0.60696751      1.41443384
H       5.12700525      2.38981324      1.54102020
H       3.26617735     -0.96347486     -2.40962230
H       5.03046533     -0.95681422     -2.11161875
H       4.01635828     -2.25470386     -1.44905322
H       1.23828544     -0.83260875      0.46186454
H       0.73931903      0.69206054      1.21079428
H      -4.57149941     -2.43466996     -1.50917791
H      -6.60081603     -1.27496308     -0.68470472
H      -6.38575866      0.72419040      0.77625563
H      -4.12934444      1.55472260      1.40572624
