14
O=[N+]([O-])c1cccc(Cl)c1Cl
O       2.80246244     -0.28213466     -1.24621888
N       2.29186476      0.22631310     -0.24063116
O       2.89163397      0.81557458      0.66655829
C       0.86748585      0.06786463     -0.08538345
C       0.41011070     -1.15402892      0.42775669
C      -0.95767649     -1.34317681      0.59717668
C      -1.84445505     -0.32017113      0.25449246
C      -1.37037462      0.89630297     -0.26134867
Cl     -2.55210032      2.09581688     -0.65825670
C       0.00355655      1.10657139     -0.44001916
Cl      0.60081079      2.59668400     -1.09089502
H       1.10745080     -1.94681650      0.69216589
H      -1.33703525     -2.28281482      0.99450069
H      -2.91373414     -0.47598471      0.39010236
