51
COCCNC(=O)c1ccc(Nc2ncc3cc(-c4ccncc4)ccc3n2)cc1F
C       9.01932816     -0.26718673      1.37492697
O       8.42295672      0.71867863      0.54253535
C       8.31860871      0.26401195     -0.81303570
C       7.62163130      1.34038481     -1.64638520
N       6.23346782      1.51598621     -1.25546552
C       5.24739415      0.66141753     -1.69494576
O       5.45755295     -0.21075219     -2.53340395
C       3.88768800      0.81493516     -1.10634117
C       2.85986293     -0.00951356     -1.57688432
C       1.56179397      0.09520680     -1.05530255
C       1.25189440      1.02022829     -0.05349554
N      -0.02001718      1.17057813      0.50577616
C      -1.25035771      0.55202487      0.29940870
N      -1.41125660     -0.42485930     -0.60174059
C      -2.64313622     -0.95341625     -0.72108632
C      -3.73278702     -0.54530740      0.02622882
C      -5.02523473     -1.09892158     -0.09955681
C      -6.08324396     -0.63786676      0.69537901
C      -7.43290037     -1.20832126      0.57404574
C      -8.08997511     -1.25897391     -0.66107086
C      -9.36242394     -1.80579042     -0.72502042
N     -10.01911838     -2.30423953      0.34197417
C      -9.37594527     -2.25044977      1.52594247
C      -8.10563428     -1.71995877      1.69000753
C      -5.80714686      0.38600209      1.61063106
C      -4.51795914      0.92634460      1.72123389
C      -3.46585167      0.47400000      0.93753452
N      -2.24698779      1.01560519      1.07343017
C       2.29048354      1.83999878      0.41110727
C       3.58388694      1.73669589     -0.10792369
F       4.52344095      2.55332743      0.39450263
H       9.08380383      0.13296901      2.39026610
H       8.40599591     -1.17316061      1.39500424
H      10.02966701     -0.50267774      1.02689243
H       7.75745317     -0.67689935     -0.84385594
H       9.32647860      0.09378206     -1.20776742
H       8.10990910      2.30998143     -1.50490359
H       7.65974286      1.07467215     -2.70786480
H       6.06024692      2.09217469     -0.43835439
H       3.05811420     -0.74319426     -2.35677819
H       0.80255749     -0.56961120     -1.45788753
H      -0.13280633      1.87249519      1.22318421
H      -2.72667247     -1.74244231     -1.46320174
H      -5.19689117     -1.90252056     -0.81401258
H      -7.62977764     -0.86761162     -1.56264027
H      -9.90286542     -1.85599138     -1.66607038
H      -9.92408082     -2.66004100      2.36970113
H      -7.64827302     -1.71996409      2.67428005
H      -6.59757867      0.78719529      2.24288641
H      -4.33554390      1.72368178      2.43847492
H       2.11050599      2.57615456      1.18964126
