45
NC(=O)c1ccc2c(c1)OCCc1cc(-c3n[nH]cc3-c3ccccc3Cl)sc1-2
N       6.32477490      2.93502770      0.42169512
C       5.34981334      2.85271869     -0.53361707
O       5.37690338      3.57739207     -1.52012307
C       4.24410987      1.88615185     -0.30595870
C       3.04207182      2.07476122     -0.98535751
C       1.96951340      1.19596276     -0.78239507
C       2.05906811      0.09486272      0.09578732
C       3.31030686     -0.11134577      0.71250280
C       4.37789554      0.78416551      0.53707363
O       3.61109082     -1.15743124      1.54882024
C       3.30045334     -2.42200808      0.95785107
C       1.93734115     -2.88163699      1.43535007
C       0.79938726     -2.04957654      0.91870186
C      -0.55673725     -2.52512662      0.98428049
C      -1.47072842     -1.62369047      0.49564840
C      -3.02150817     -1.90795517      0.45444563
N      -3.51497424     -3.06808544      0.91850863
N      -4.83755695     -2.96411072      0.72488616
C      -5.21990450     -1.77858920      0.17573746
C      -4.05912626     -1.06346641     -0.02574858
C      -4.04895852      0.25909288     -0.61369396
C      -4.26922112      1.36458692      0.22202946
C      -4.25667676      2.65968127     -0.29974267
C      -4.02612913      2.86193694     -1.65906155
C      -3.80826380      1.76938977     -2.49964863
C      -3.81916091      0.46996016     -1.98234213
Cl     -3.54272507     -0.83535510     -3.08345325
S      -0.71105008     -0.20504849     -0.02415846
C       0.87692917     -0.77694506      0.35498976
H       6.99183723      3.68749950      0.30508893
H       6.19525383      2.57359650      1.35572503
H       2.92499627      2.91380468     -1.66936898
H       1.05597665      1.40323884     -1.33590042
H       5.31732715      0.57504810      1.04015513
H       3.38360060     -2.40690432     -0.13789099
H       4.05865134     -3.12709067      1.31738175
H       1.90331734     -2.85389657      2.53194973
H       1.78733110     -3.92293081      1.12509342
H      -0.84490757     -3.49218779      1.38175068
H      -5.42438296     -3.74634324      0.99581159
H      -6.25750759     -1.55856120     -0.03159378
H      -4.44311376      1.22159797      1.28676231
H      -4.42312892      3.51056033      0.35669557
H      -4.01403241      3.87064673     -2.06498845
H      -3.62815610      1.93660280     -3.55868194
