40
CCCOC(=O)C(C)c1ccc2cc(OC)ccc2c1
C       5.02687483      0.08658132      2.21474259
C       3.80644258     -0.06410123      1.32457611
C       4.04018843     -1.08097954      0.21262082
O       2.84635914     -1.23184728     -0.57025921
C       2.68496806     -0.33694333     -1.58891694
O       3.48939466      0.53584738     -1.88989129
C       1.34866063     -0.57212152     -2.28168897
C       1.35948925      0.00794069     -3.69795578
C       0.18908636     -0.02837478     -1.46517956
C       0.11388945      1.32785132     -1.12243605
C      -0.95683969      1.81173979     -0.36736658
C      -1.97836327      0.95274779      0.06357088
C      -3.06171115      1.42376584      0.82386470
C      -4.07724882      0.56363669      1.25187656
O      -5.06498967      1.16506603      1.98270583
C      -6.12282708      0.33319200      2.44175469
C      -4.01216957     -0.78679375      0.91723829
C      -2.93955936     -1.27172392      0.16045517
C      -1.91586022     -0.41535809     -0.27367968
C      -0.83262046     -0.88971715     -1.03425106
H       5.28565245     -0.86485294      2.69022039
H       4.83238600      0.81892371      3.00448958
H       5.89209633      0.42983505      1.63866602
H       3.54238707      0.90892343      0.89444775
H       2.94216654     -0.37122532      1.92559192
H       4.89459769     -0.80829234     -0.41826539
H       4.26235104     -2.06354392      0.64306912
H       1.24456170     -1.66011668     -2.39442286
H       2.17570473     -0.42628617     -4.28609265
H       0.41785099     -0.20516494     -4.21588284
H       1.50190066      1.09445898     -3.69714022
H       0.89051087      2.02366407     -1.43655164
H      -0.98673109      2.86993390     -0.11617080
H      -3.12280508      2.47661278      1.09134986
H      -6.82203740      0.96065997      3.00285299
H      -6.67102141     -0.10769570      1.60260079
H      -5.75034573     -0.44014202      3.12167312
H      -4.77621459     -1.49154063      1.22696628
H      -2.91063082     -2.33042568     -0.08805259
H      -0.78554405     -1.94663463     -1.29112935
