55
C1CCC(C(CC2CCCCN2)C2CCCCC2)CC1
C      -1.98037342     -4.13933254      0.38904331
C      -2.66428177     -3.24371610     -0.63768581
C      -1.79690158     -2.04229577     -1.01467474
C      -1.36527096     -1.23827527      0.22697702
C      -0.49895916      0.02937809     -0.10329513
C       0.84339297     -0.34887305     -0.80109294
C       2.10143158      0.23323233     -0.11472961
C       3.33277851      0.04381839     -1.01257363
C       4.57978331      0.68265010     -0.39970085
C       4.51557626      0.73821222      1.12474828
C       3.67412678     -0.40168073      1.68409287
N       2.29367948     -0.39794162      1.20047156
C      -1.30239427      1.10192325     -0.93320738
C      -0.50024636      2.38912045     -1.24877542
C      -0.69708462      3.46667747     -0.19003589
C      -2.15482813      3.92372186     -0.12173316
C      -3.14068631      2.85476928     -0.59267404
C      -2.64695892      1.45505495     -0.24644992
C      -0.67792281     -2.16051616      1.25563447
C      -1.56083112     -3.35143325      1.62488107
H      -1.09756711     -4.60691988     -0.06405587
H      -2.65747075     -4.95004224      0.68062732
H      -3.62028432     -2.88880943     -0.23311592
H      -2.89613792     -3.82550367     -1.53703645
H      -0.92071554     -2.40083814     -1.56634155
H      -2.36811067     -1.41044972     -1.70248195
H      -2.28376492     -0.89404417      0.71900147
H      -0.27147731      0.50263822      0.86122667
H       0.96942772     -1.43577249     -0.86022272
H       0.81531519     -0.02175526     -1.84835261
H       1.96140456      1.30932796      0.04284094
H       3.16010633      0.47507671     -2.00595398
H       3.51494542     -1.02796906     -1.16932805
H       5.46261111      0.11611162     -0.71930080
H       4.71007314      1.70019143     -0.78716364
H       5.52939805      0.70347007      1.53936722
H       4.08413768      1.69755125      1.43850567
H       4.13451198     -1.36079114      1.41781151
H       3.66902660     -0.35682055      2.77897444
H       1.68952276      0.05959421      1.88229102
H      -1.53452965      0.65327174     -1.90827977
H       0.56418828      2.19463202     -1.38812902
H      -0.84393198      2.78645618     -2.21392731
H      -0.05459466      4.32886605     -0.40201617
H      -0.38541738      3.07868038      0.78751223
H      -2.38487376      4.21654712      0.90984302
H      -2.29297412      4.82355250     -0.73324595
H      -3.28144865      2.93284026     -1.67794333
H      -4.12121121      3.03493043     -0.13752786
H      -2.54487985      1.39120740      0.84453773
H      -3.40979851      0.72363166     -0.53826575
H      -0.44582078     -1.59373793      2.16498150
H       0.27068273     -2.54460930      0.86606608
H      -1.02110094     -4.00918063      2.31553662
H      -2.45327103     -2.99582749      2.15434518
