53
CCc1cc(Cc2cc(CC)c(N)c(CC)c2Cl)c(Cl)c(CC)c1N
C       2.92552590     -1.68416617      2.38726739
C       3.03933652     -2.03422068      0.90875831
C       2.80903714     -0.82664834      0.02152857
C       1.49470093     -0.58439222     -0.41257938
C       1.17101315      0.50702999     -1.23183765
C      -0.26733656      0.74073994     -1.67040926
C      -1.35306235      0.24384550     -0.72858751
C      -2.06287222     -0.91286126     -1.07958464
C      -3.07967037     -1.42973932     -0.26083985
C      -3.77087118     -2.69871363     -0.71798778
C      -5.02006509     -2.40442247     -1.53502368
C      -3.44098739     -0.74613464      0.92043027
N      -4.42056671     -1.29931317      1.77223650
C      -2.67590712      0.37438192      1.34048937
C      -2.96896977      1.04716269      2.67256875
C      -4.02334739      2.13798123      2.53965933
C      -1.66048042      0.87871668      0.48891136
Cl     -0.77584964      2.31153124      0.93634475
C       2.22820328      1.31968322     -1.69072122
Cl      1.87499746      2.61558450     -2.80312564
C       3.56824123      1.09477395     -1.27809229
C       4.69752160      1.96811399     -1.80574493
C       4.91897710      3.20405203     -0.94213462
C       3.84113921      0.06368306     -0.34301695
N       5.16692574     -0.20716672      0.05692240
H       1.92757734     -1.29898215      2.62694926
H       3.10066677     -2.57433291      3.00051563
H       3.65604493     -0.92117570      2.67859607
H       4.01552649     -2.48646173      0.69612718
H       2.30588020     -2.81539545      0.66535465
H       0.71267731     -1.27142022     -0.08923104
H      -0.46631336      1.80700691     -1.83184148
H      -0.38912106      0.26678247     -2.65479228
H      -1.81502719     -1.42992867     -2.00623159
H      -3.07762741     -3.29713037     -1.32322575
H      -4.01659137     -3.33321801      0.14182542
H      -4.77731302     -1.82867896     -2.43498501
H      -5.75318377     -1.82972856     -0.95947554
H      -5.49516718     -3.34010912     -1.84862806
H      -4.87243908     -0.62226942      2.37750723
H      -5.11155052     -1.86800355      1.29458736
H      -2.05504572      1.46277119      3.11144096
H      -3.29319126      0.30544809      3.41279326
H      -4.97267790      1.73548642      2.17143237
H      -3.70394361      2.92193217      1.84484976
H      -4.20989447      2.60648517      3.51270645
H       4.50972097      2.26501862     -2.84390284
H       5.62853541      1.39239234     -1.87297547
H       5.17197230      2.93364353      0.08876900
H       5.74220373      3.80381467     -1.34665105
H       4.02617449      3.83714945     -0.90852789
H       5.76507202      0.61216324      0.07747308
H       5.23140190     -0.71276080      0.93338526
