42
C=CC(C)(CCC=C(C)C)OC(C)OCC
C       1.14570122     -3.10916963     -0.08421016
C       0.66338166     -2.16385677      0.73512853
C       0.39110834     -0.69972085      0.42054619
C       0.74409307     -0.26821537     -1.01681180
C      -1.10760046     -0.39854884      0.70904931
C      -2.11127325     -1.04868821     -0.24437343
C      -3.52951771     -0.79707710      0.19519232
C      -4.35812717      0.17459976     -0.23671233
C      -5.76502673      0.27565241      0.29436955
C      -3.99514690      1.24476601     -1.23147680
O       1.09446565      0.08059608      1.40902257
C       2.51168339      0.17896977      1.27605025
C       3.05821175      0.46196347      2.67319716
O       2.83548706      1.25798138      0.39909490
C       4.17306846      1.20651270     -0.08846953
C       4.31924539      2.26790653     -1.16375248
H       1.39731585     -2.90831894     -1.12133523
H       1.29926937     -4.12083285      0.27505798
H       0.44347423     -2.45501530      1.76113292
H       0.53281578      0.79803114     -1.16847495
H       0.18721219     -0.83713244     -1.76760563
H       1.80568613     -0.41607893     -1.24305167
H      -1.33942880     -0.69743595      1.73986573
H      -1.25574266      0.69006509      0.70008715
H      -1.96429195     -0.69320797     -1.26859505
H      -1.95932442     -2.13485772     -0.27937399
H      -3.89901139     -1.50683899      0.93388501
H      -6.48781851      0.17817999     -0.52434279
H      -5.98951503     -0.50185896      1.03206988
H      -5.91365844      1.24432525      0.77708339
H      -4.14140245      2.23544061     -0.78326970
H      -4.63857293      1.16952376     -2.11995414
H      -2.95456741      1.19459827     -1.56867388
H       2.92914855     -0.76741690      0.90714558
H       2.70311812      1.43332403      3.03929910
H       2.72291398     -0.30067068      3.38488114
H       4.15130386      0.48936635      2.68208989
H       4.87876610      1.40955734      0.72825226
H       4.38683826      0.21611974     -0.51475156
H       3.64758357      2.05785782     -2.00417897
H       5.34448366      2.30611467     -1.53624211
H       4.04365054      3.25349025     -0.77437860
