14
O=C(O)C(Cl)(Cl)CCCl
O      -1.26933366      1.20477030      1.00999685
C      -1.48301136      0.40754872      0.10632105
O      -2.65416690      0.48124190     -0.56576444
C      -0.54427128     -0.71786084     -0.34393417
Cl     -0.36804729     -0.66673962     -2.12715995
Cl     -1.34350632     -2.26939246      0.10446594
C       0.82474905     -0.65750221      0.34843965
C       1.65245012      0.57577322     -0.00374848
Cl      3.19068381      0.55186931      0.89831039
H      -3.14783512      1.21763607     -0.14656718
H       1.40509644     -1.55452104      0.09112436
H       0.68041425     -0.68512177      1.43751323
H       1.14378751      1.50685072      0.25560283
H       1.91299075      0.60544769     -1.06460008
