55
CNS(=O)(=O)Cc1ccc2[nH]cc(CCN(C)C)c2c1.O=C(O)CCC(=O)O
C       5.60154215      2.67320509      0.09407444
N       4.17322446      2.78257497      0.38765796
S       3.31884208      1.35068350      0.66836136
O       4.26313345      0.39479766      1.20435443
O       2.14993737      1.77030272      1.41097869
C       2.84228421      0.89731612     -1.00698082
C       2.01739329     -0.36267868     -0.96446712
C       2.63757837     -1.61842773     -0.97649510
C       1.89279994     -2.80124931     -0.93026010
C       0.50013565     -2.68984309     -0.86858420
N      -0.46482510     -3.66732089     -0.80751119
C      -1.70981610     -3.10215853     -0.75248311
C      -1.56428770     -1.72834472     -0.77557285
C      -2.66940650     -0.71523642     -0.72871407
C      -2.84050978     -0.10516327      0.67406236
N      -3.86678636      0.95798917      0.73192601
C      -5.21942995      0.41594733      0.58351505
C      -3.76106789      1.67744176      2.00574909
C      -0.15894248     -1.46226236     -0.85172558
C       0.61415743     -0.28326285     -0.89965182
O      -2.74985819     -0.70194553     -0.04234024
C      -1.92970679      0.19863375     -0.09987059
O      -2.20011732      1.41517438      0.40826107
C      -0.55059624      0.10299364     -0.67283157
C       0.44983455     -0.19802282      0.43026145
C       1.83407410     -0.34824735     -0.12721770
O       2.18109261     -0.22593750     -1.28922060
O       2.73137404     -0.65239040      0.83023330
H       6.16080469      2.44191294      1.00404144
H       5.95752204      3.63493971     -0.28625139
H       5.79467361      1.91571420     -0.66937699
H       3.90305628      3.49672309      1.06676605
H       3.75228322      0.74715481     -1.59537635
H       2.27362518      1.72883484     -1.43447987
H       3.72391323     -1.69212877     -1.00981519
H       2.38592981     -3.76774646     -0.93322562
H      -0.27384301     -4.65948120     -0.79983079
H      -2.59404823     -3.72335072     -0.69946492
H      -2.45896351      0.07915336     -1.45583863
H      -3.59794332     -1.19852052     -1.05311647
H      -1.87370802      0.32574682      0.96733576
H      -3.05884113     -0.89540131      1.40549200
H      -5.44756156     -0.34237834      1.34142685
H      -5.36322230     -0.02707476     -0.40661946
H      -5.96417307      1.21589509      0.66589608
H      -2.77238260      2.13948869      2.10809998
H      -3.92731548      1.01972951      2.86739080
H      -4.49080734      2.49392128      2.04817185
H       0.11504499      0.68255727     -0.87353477
H      -3.11973097      1.33771335      0.74032523
H      -0.31101201      1.03606670     -1.19825899
H      -0.55200824     -0.68660949     -1.43472282
H       0.17664556     -1.13044707      0.93858817
H       0.45789511      0.61210460      1.16842385
H       3.58211379     -0.72849647      0.34836944
