14
N#Cc1c(O)[nH]c(Cl)cc1=O
N      -3.32563189      1.07676286      0.77046053
C      -2.21303058      0.84259783      0.53760626
C      -0.89501188      0.42677675      0.23441477
C      -0.57289434     -0.84842275     -0.07153202
O      -1.46467391     -1.89280377     -0.12829805
N       0.71453647     -1.20817191     -0.35851637
C       1.74559874     -0.32038158     -0.35604610
Cl      3.25497678     -1.01958357     -0.74731609
C       1.59350605      0.97403533     -0.07481737
C       0.21529787      1.42991840      0.24638376
O       0.02038535      2.61202814      0.51260637
H      -2.36803524     -1.59348361      0.08233562
H       0.90145811     -2.17927564     -0.58171423
H       2.39351845      1.70000352     -0.06556710
