41
Nc1ccc(C(c2ccc(N)cc2)c2ccc(N)cc2)cc1
N       0.07337337      5.60607131     -0.55071847
C       0.17968882      4.24919357     -0.22296386
C       0.68509532      3.33814974     -1.15090401
C       0.68819742      1.96478542     -0.88185419
C       0.15014973      1.46649934      0.31410822
C       0.10865470     -0.03092174      0.64373059
C      -1.26222954     -0.68303717      0.42449232
C      -2.14946785     -0.26376456     -0.57806880
C      -3.38172661     -0.90266142     -0.75660872
C      -3.77456459     -1.94855561      0.07903068
N      -4.95375616     -2.65658415     -0.18182629
C      -2.86810006     -2.41582175      1.03068363
C      -1.63522141     -1.78174259      1.21658086
C       1.28296645     -0.83209478      0.06774787
C       1.16960513     -1.61801910     -1.08879127
C       2.27391848     -2.31519181     -1.59175156
C       3.50550867     -2.27520491     -0.93746040
N       4.63067305     -2.87842337     -1.51189698
C       3.64271544     -1.44010989      0.17134524
C       2.54352109     -0.74130652      0.68129543
C      -0.41976906      2.38402258      1.21245360
C      -0.42022540      3.75508005      0.93531672
H       0.77798364      5.92056341     -1.21035839
H       0.00314136      6.21582602      0.25755079
H       1.08532944      3.68774222     -2.09887855
H       1.10611930      1.29288125     -1.62816009
H       0.25916953     -0.07375573      1.73547733
H      -1.89154163      0.55685698     -1.24375716
H      -4.03334555     -0.57003545     -1.56023216
H      -5.31157099     -3.16186936      0.62234311
H      -5.66996072     -2.09868425     -0.63603472
H      -3.11142920     -3.28305715      1.63839515
H      -0.95531676     -2.16688927      1.97392842
H       0.22533250     -1.69034787     -1.62377243
H       2.15791911     -2.89285890     -2.50493449
H       5.37266539     -3.07224124     -0.84713053
H       4.40930064     -3.68451794     -2.08784111
H       4.61063007     -1.32198499      0.65072771
H       2.68378947     -0.10533557      1.55310370
H      -0.88889620      2.03329809      2.12956628
H      -0.89832638      4.43404710      1.63606114
