31
CCCCCCCCOS(=O)(=O)[O-].[Na+]
C      -4.88498781     -0.99392270      0.59302268
C      -3.76138999     -0.06216462      1.01829688
C      -2.50418149     -0.28037546      0.17687498
C      -1.37631602      0.65872666      0.60790466
C      -0.11756640      0.44061068     -0.23487973
C       1.01015316      1.37845305      0.20116918
C       2.25558335      1.27996556     -0.68030400
C       2.95969881     -0.07106724     -0.60152368
O       4.14322362      0.00328255     -1.37602271
S       5.08342120     -1.32942363     -1.43281668
O       6.18951376     -0.92666747     -2.29477936
O       4.20619453     -2.34855357     -2.00257362
O       5.44897863     -1.55525058     -0.03706662
Na      0.00000000      0.00000000      0.00000000
H      -5.77396507     -0.82087043      1.20758208
H      -5.15796178     -0.82707703     -0.45386986
H      -4.59063647     -2.04190844      0.70886735
H      -3.53494446     -0.23196437      2.07735041
H      -4.09916567      0.97617602      0.92104056
H      -2.17306930     -1.32149545      0.27436389
H      -2.73703017     -0.11327909     -0.88186252
H      -1.70827716      1.69954710      0.51050502
H      -1.14283243      0.49119212      1.66641977
H      -0.35007182      0.61194896     -1.29281649
H       0.20237742     -0.60273021     -0.13645333
H       0.64857192      2.41370447      0.16759849
H       1.28084558      1.17263044      1.24391735
H       2.96303233      2.06480823     -0.38314170
H       1.99819966      1.49818765     -1.72439008
H       2.31402087     -0.86127499     -0.99683991
H       3.20858119     -0.30120821      0.44008536
