10
C1COC1
C      -0.02506577      0.72418107     -0.30808326
C       1.04067439     -0.26382102      0.15228268
O       0.04057724     -1.21253830      0.58768609
C      -1.01940632     -0.35210582      0.11236962
H      -0.01411363      0.95171554     -1.37665621
H      -0.07592258      1.64774061      0.27399189
H       1.66440284      0.07434512      0.98431382
H       1.66784441     -0.68026877     -0.64106462
H      -1.70147100     -0.06989947      0.91910168
H      -1.57751957     -0.81934896     -0.70394170
