10
NCC(=O)O
N      -0.61488857      1.05229792     -0.04329274
C      -0.35536274     -0.35320941     -0.45585770
C       0.87973266     -0.87367381      0.27631852
O       1.21863682     -2.04431279      0.33383526
O       1.58174293      0.14298720      0.84205320
H      -1.30384923      1.44142866     -0.69375330
H      -1.11030101      1.02585073      0.85519219
H      -1.21979803     -0.97461070     -0.20802529
H      -0.15523646     -0.38468069     -1.53030377
H       1.07932362      0.96792287      0.62383363
