35
CC(O)CN.O=C(O)CC(O)(CC(=O)O)C(=O)O
C      -1.46006078      0.83198934      0.33839057
C      -0.11381964      0.46190332     -0.26602346
O      -0.32392865     -0.09246901     -1.56890987
C       0.64329510     -0.55164411      0.61224568
N       1.90716085     -0.95971743     -0.01045582
O      -2.83788893     -0.36627166      0.27647419
C      -1.99251447     -1.24659036      0.31575425
O      -2.34023988     -2.52774432      0.53904513
C      -0.50374450     -1.07867264      0.17152742
C      -0.10601308      0.30888105     -0.35336063
O      -0.90704615      0.60236599     -1.52007766
C       1.35718518      0.37478250     -0.82432777
C       2.37264218      0.04652648      0.23507228
O       2.31582855     -0.86445238      1.04196390
O       3.44995161      0.85119257      0.17729182
C      -0.35520764      1.39025041      0.71840518
O       0.49250799      1.81769814      1.48699881
O      -1.61937074      1.87476948      0.70134424
H      -1.34016124      1.28703548      1.32615300
H      -2.10442223     -0.04890742      0.43350793
H      -1.98794960      1.53855413     -0.31102454
H       0.48857206      1.36842216     -0.39298736
H      -0.82317710     -0.92056446     -1.45754211
H       0.03652955     -1.45419092      0.74637347
H       0.84249766     -0.13138161      1.60348836
H       2.52555630     -0.14939008     -0.06187527
H       1.70990773     -1.17963939     -0.99134057
H      -3.31600627     -2.51662766      0.63307730
H      -0.06838971     -1.27657772      1.15566756
H      -0.16562475     -1.84316340     -0.53859566
H      -0.65224839      1.48657832     -1.84799535
H       1.56385182      1.38471607     -1.20420283
H       1.52259420     -0.30331406     -1.67052506
H       4.00710176      0.56988678      0.93383907
H      -2.21736875      1.31576642      0.14275360
