47
COc1ncccc1-c1cccc2c(N)c3c(nc12)CN(C1CCC1)C3=O
C      -4.08392402      2.25768344      2.07072578
O      -3.65431308      1.09980273      1.36510798
C      -3.81827974      1.20035884     -0.00619143
N      -4.44591218      2.29326103     -0.50878672
C      -4.60638497      2.34219659     -1.84735568
C      -4.17937148      1.35018848     -2.71248127
C      -3.54577841      0.23468835     -2.17285992
C      -3.35111348      0.13673222     -0.78795616
C      -2.68311917     -1.04103745     -0.20876784
C      -3.45770835     -2.18345787      0.06643459
C      -2.87743795     -3.32045747      0.60838641
C      -1.51611799     -3.32457727      0.89360253
C      -0.70630602     -2.19378997      0.64617199
C       0.68185635     -2.17733843      0.95181607
N       1.36305729     -3.31042355      1.44196271
C       1.38461313     -1.04880756      0.57148154
C       0.74229233      0.02539563      0.00255914
N      -0.57367232      0.07007036     -0.25075913
C      -1.30267594     -1.02904031      0.06247588
C       1.72083389      1.12794619     -0.27698589
N       2.98543297      0.55275451      0.14667956
C       4.21871587      1.33549640      0.26492875
C       4.48730958      2.35303233     -0.87453060
C       5.97814824      1.97772826     -0.75575637
C       5.50957983      0.61590152     -0.20522429
C       2.80105689     -0.70373032      0.71630831
O       3.62245189     -1.40565636      1.27838478
H      -3.52528783      3.14686489      1.75768079
H      -5.16315711      2.41083894      1.96216547
H      -3.87802002      2.09495512      3.13307937
H      -5.10561980      3.23167666     -2.22095622
H      -4.33320552      1.44294244     -3.78154383
H      -3.19400757     -0.55571950     -2.83172012
H      -4.52566700     -2.17992845     -0.14507502
H      -3.48188422     -4.20082875      0.81032799
H      -1.08660161     -4.23442931      1.30567791
H       2.31489844     -3.08976833      1.75439027
H       0.85277632     -3.83787269      2.14159591
H       1.76088621      1.36438578     -1.34326342
H       1.50166844      2.01480639      0.32425449
H       4.31354927      1.77945992      1.26461230
H       4.05267159      2.09025293     -1.84631920
H       4.24550607      3.39465228     -0.64626099
H       6.53030454      2.58308655     -0.02767258
H       6.53879594      1.94480125     -1.69308036
H       6.13226703      0.19072865      0.58651331
H       5.35689369     -0.14159621     -0.98377678
