56
CC(C)C(C(=O)OC(C#N)c1cccc(Oc2ccccc2)c1)c1ccc(OC(F)F)cc1
C      -3.19037267      3.61105600     -0.00574343
C      -2.09323116      3.14719364      0.95819911
C      -2.52636456      3.43706312      2.40076072
C      -1.65150371      1.66603075      0.77948483
C      -0.76323584      1.47716107     -0.45275574
O      -0.57394153      2.30296842     -1.33431030
O      -0.19657979      0.23755783     -0.43831993
C       0.54799500     -0.09906119     -1.62713691
C      -0.36774644     -0.49201659     -2.72604192
N      -1.10764026     -0.80657804     -3.56730481
C       1.48435350     -1.23889946     -1.25184034
C       0.99867578     -2.40275447     -0.62840315
C       1.85875176     -3.45798836     -0.31606846
C       3.21660344     -3.36135080     -0.61221483
C       3.71613184     -2.20466188     -1.20604493
O       5.05924781     -2.18595669     -1.50671946
C       5.76503529     -1.05475154     -1.16400065
C       5.69072800     -0.47613261      0.10517293
C       6.46576687      0.64591128      0.40183565
C       7.32035579      1.17827672     -0.56318363
C       7.40363212      0.59023547     -1.82751038
C       6.63145868     -0.53328559     -2.12420283
C       2.85591093     -1.15483272     -1.54486580
C      -2.78123336      0.64419260      0.83211730
C      -3.54755586      0.32943403     -0.30150875
C      -4.56872174     -0.62591944     -0.23924851
C      -4.83701736     -1.28711033      0.95774374
O      -5.80204191     -2.23503440      1.14977438
C      -6.27329234     -2.88837656     -0.01668951
F      -6.99620971     -3.96285806      0.39188685
F      -7.13558756     -2.06749991     -0.66543580
C      -4.09543178     -0.96344547      2.09521252
C      -3.07368674     -0.01226023      2.03484950
H      -2.92678806      3.40933718     -1.04767220
H      -4.14957050      3.13002560      0.20690015
H      -3.34381492      4.69098475      0.08802866
H      -1.21374219      3.77766021      0.76617780
H      -3.44431196      2.90061185      2.66549219
H      -1.74201410      3.14883684      3.10951061
H      -2.71677622      4.50838172      2.53749121
H      -0.96607261      1.45159792      1.61466987
H       1.15652274      0.76235626     -1.93582882
H      -0.06050101     -2.49939940     -0.39111284
H       1.46771932     -4.35833227      0.15017996
H       3.88608723     -4.18531402     -0.37821708
H       5.04543097     -0.89915989      0.87130900
H       6.41650267      1.09580566      1.39031778
H       7.92991151      2.04805603     -0.32858239
H       8.07639757      0.99987102     -2.57384651
H       6.70228896     -0.99929104     -3.10344693
H       3.25917763     -0.27657202     -2.04473335
H      -3.36915124      0.82888314     -1.25322026
H      -5.14695965     -0.80812132     -1.14118536
H      -5.47331576     -3.23229917     -0.68170366
H      -4.30995294     -1.46024108      3.03885600
H      -2.51031989      0.21001542      2.93920190
