61
c1cc(N(CC2CO2)CC2CO2)ccc1Cc1ccc(N(CC2CO2)CC2CO2)cc1
C       1.47681997      0.46883799     -0.78741047
C       2.64689345      0.69483359     -0.05136337
C       3.86054452      0.09527021     -0.40632198
N       5.05857123      0.29941292      0.29081618
C       6.04055279      1.12583441     -0.43567576
C       5.62192560      2.56683392     -0.50132181
C       4.85705783      3.12041272     -1.67420964
O       6.26871972      3.32690662     -1.53170353
C       5.01964020      0.47604480      1.75028820
C       4.69877427     -0.82201858      2.42494508
C       3.30908587     -1.17509895      2.88810440
O       4.30837982     -0.69022244      3.80047225
C       3.86163531     -0.72831450     -1.53921804
C       2.69316850     -0.96924277     -2.27160972
C       1.47836553     -0.39075760     -1.89131566
C       0.23354580     -0.65657734     -2.71533971
C      -1.08126995     -0.65752916     -1.96338678
C      -1.27422192     -1.48042243     -0.84678913
C      -2.47843971     -1.44473725     -0.13821302
C      -3.52304454     -0.60100551     -0.53150855
N      -4.69873738     -0.58824857      0.24860921
C      -5.73161440     -1.46007789     -0.34252715
C      -6.55927257     -2.06342501      0.75543475
C      -6.06040336     -3.24949468      1.53804588
O      -7.04454055     -3.39187175      0.50055620
C      -5.16874200      0.75627185      0.63337635
C      -4.23309214      1.37634627      1.62471304
C      -3.17141271      2.36273363      1.22058351
O      -4.40904138      2.79011503      1.80584894
C      -3.34948906      0.17379976     -1.68324202
C      -2.14164535      0.14958550     -2.38995397
H       0.56201221      0.96730852     -0.47423871
H       2.58234418      1.36768145      0.79687655
H       7.00792881      1.06725116      0.07762400
H       6.22131375      0.72225623     -1.44220166
H       5.51662853      3.03467315      0.46555358
H       4.20170573      3.96891754     -1.50282523
H       4.52303028      2.43970614     -2.44451614
H       4.33606724      1.27512687      2.05278245
H       6.01141503      0.78403623      2.10850730
H       5.38435415     -1.62196565      2.16728385
H       3.04196044     -2.22410840      2.94138310
H       2.48731734     -0.51247220      2.64725332
H       4.78283327     -1.21779410     -1.84186224
H       2.74724066     -1.62391992     -3.14232715
H       0.20790054      0.09734907     -3.51251311
H       0.31978473     -1.63305355     -3.21070523
H      -0.47692395     -2.13535622     -0.50469422
H      -2.59756342     -2.06789668      0.74374372
H      -5.27964905     -2.26732079     -0.93612214
H      -6.37708890     -0.88823383     -1.02204267
H      -7.23403248     -1.36791777      1.23086198
H      -5.05764932     -3.61329990      1.34270395
H      -6.39386177     -3.36229644      2.56200742
H      -6.14211654      0.67041622      1.13166047
H      -5.33696920      1.39808912     -0.23818405
H      -4.06901579      0.76840404      2.50273022
H      -3.01151631      2.56698252      0.17117652
H      -2.27946025      2.41125391      1.83169078
H      -4.15020289      0.80661175     -2.04978439
H      -2.03650040      0.77537671     -3.27436986
