32
CC(C)Nc1nc(NC(C)C)[nH]c(=O)n1
C       3.69866057     -0.38785886      1.33376298
C       3.29897287      0.71532872      0.35792165
C       3.83175230      2.06704507      0.82708272
N       1.85307375      0.79265389      0.26150286
C       1.09966092     -0.07199433     -0.47878283
N      -0.21808260     -0.11068211     -0.13957193
C      -1.00389894     -0.86936705     -0.81847005
N      -2.34442948     -0.98358832     -0.58076883
C      -3.06491192     -0.09214368      0.31919568
C      -4.32687560     -0.80034611      0.80594379
C      -3.41919309      1.20194561     -0.40750983
N      -0.52329672     -1.61715008     -1.83078040
C       0.80295968     -1.63160539     -2.11266079
O       1.21873854     -2.40272479     -2.97433614
N       1.61102969     -0.79225635     -1.41841762
H       4.78776167     -0.44545029      1.43160215
H       3.34043994     -1.36480803      0.99181277
H       3.27581732     -0.21235321      2.32940215
H       3.73512193      0.50463485     -0.62578558
H       3.43203859      2.33577344      1.81147532
H       3.54617541      2.86037349      0.12744384
H       4.92452110      2.05336797      0.89543295
H       1.36511931      1.11168584      1.08891232
H      -2.90831576     -1.38207208     -1.32043854
H      -2.44964170      0.14052509      1.19653513
H      -4.88661767     -0.16596884      1.50109146
H      -4.07304555     -1.73078490      1.32575567
H      -4.98898264     -1.05852388     -0.02826634
H      -2.51687036      1.72575444     -0.74079585
H      -3.97625888      1.87771132      0.24976003
H      -4.03258068      1.00641323     -1.29428811
H      -1.08884200     -2.27353466     -2.33680723
