21
O=C(Cl)OCCOCCOC(=O)Cl
O      -2.99067689      0.33391441      2.47765325
C      -3.81912508     -0.05851045      1.66332300
Cl     -5.53173373      0.22381707      1.77374687
O      -3.47371959     -0.76581052      0.54440631
C      -2.07874648     -1.06785833      0.39809184
C      -1.30723802      0.11445315     -0.18172416
O       0.04105239     -0.28201558     -0.42629552
C       0.82776356      0.79964170     -0.93667790
C       2.25949220      0.31711248     -1.15036947
O       2.87486383      0.11349477      0.13170921
C       4.13353514     -0.41694981      0.08062442
O       4.70239121     -0.66230989     -0.97855567
Cl      4.81595176     -0.67981901      1.65897755
H      -2.00273937     -1.92354593     -0.28267929
H      -1.64264627     -1.40577360      1.34657655
H      -1.77553806      0.43973910     -1.11828017
H      -1.32739227      0.96187951      0.51246104
H       0.81068642      1.62665375     -0.21794035
H       0.40278608      1.12937577     -1.89081448
H       2.82553914      1.07898512     -1.69732599
H       2.25549402     -0.62730111     -1.70690705
