67
C[C@H](CCC(=O)O)[C@H]1CC[C@H]2[C@@H]3CC[C@@H]4C[C@H](O)CC[C@]4(C)[C@H]3CC[C@@]21C
C      -3.72908818     -2.02676947     -1.57784270
C      -3.82390045     -1.49493840     -0.14475131
C      -5.26975984     -1.01134791      0.14164494
C      -5.73424244      0.18525586     -0.69230154
C      -7.16059097      0.55478635     -0.38008153
O      -7.89429805      0.05548806      0.45502308
O      -7.59695866      1.56694251     -1.15671412
C      -2.75298961     -0.41519317      0.17023445
C      -2.86222025      0.10480797      1.63276303
C      -1.45061360      0.51262424      2.07460472
C      -0.62599873      0.42448351      0.79777509
C       0.90212905      0.36738644      0.93038398
C       1.42926757      1.58027574      1.71826460
C       2.70453276      2.18537794      1.14702558
C       3.71209732      1.12178293      0.69549320
C       5.00073259      1.84270396      0.24704716
C       5.93913142      0.93549757     -0.53040527
O       7.11349384      1.66789321     -0.86937401
C       5.28311149      0.40225102     -1.80234910
C       3.75203381      0.43856758     -1.76968142
C       3.12647949      0.13325078     -0.38149900
C       3.52055210     -1.31321848      0.02304381
C       1.55294815      0.27285038     -0.47927294
C       0.87740234     -0.79878952     -1.37537581
C      -0.65926920     -0.73495143     -1.38116879
C      -1.24036003     -0.77910191      0.04213499
C      -0.94191819     -2.14679157      0.70196891
H      -2.86173728     -2.68021622     -1.69810058
H      -4.60719682     -2.63010849     -1.83307382
H      -3.65278604     -1.21412297     -2.30694213
H      -3.66101295     -2.34970404      0.52495252
H      -5.37453392     -0.77125531      1.20701530
H      -5.95761653     -1.85107663     -0.02871370
H      -5.11347540      1.06238138     -0.48481147
H      -5.67835397     -0.05231281     -1.75964536
H      -8.52138930      1.70768173     -0.86346921
H      -2.93668520      0.44057783     -0.49519407
H      -3.24674781     -0.66302318      2.31387469
H      -3.54554408      0.95997922      1.68194356
H      -1.07614908     -0.17337480      2.84263028
H      -1.44744392      1.51986645      2.50315243
H      -0.85265750      1.33918862      0.22357071
H       1.16847363     -0.52541988      1.50662146
H       1.60944292      1.26853340      2.75522294
H       0.67916794      2.37841748      1.77325352
H       3.15581895      2.83708148      1.90575951
H       2.44893251      2.83725709      0.30145291
H       3.96987648      0.53751021      1.59081453
H       5.52205054      2.24739618      1.12487261
H       4.76007667      2.72098014     -0.36822138
H       6.25620843      0.10614818      0.11148585
H       7.71067709      1.05990753     -1.33750056
H       5.63009158      0.95699037     -2.68357766
H       5.62164455     -0.62981321     -1.96134932
H       3.42569027      1.43647164     -2.09329729
H       3.38378158     -0.25853461     -2.53100907
H       3.32100913     -2.02825079     -0.78167632
H       2.97815907     -1.64688845      0.91279292
H       4.58558924     -1.40058945      0.25722914
H       1.34457712      1.23094736     -0.98079090
H       1.17574543     -1.80482774     -1.06854979
H       1.21894880     -0.68247419     -2.40991513
H      -1.03199123     -1.56353978     -1.98912008
H      -0.97255407      0.18617435     -1.88893054
H      -1.39441148     -2.23923382      1.69435311
H      -1.33347814     -2.96737802      0.09169416
H       0.12809907     -2.33247042      0.82637956
