24
NC(=O)SCC(=O)Nc1ccccc1
N       3.77462085      1.80559337      0.04771467
C       2.83155964      1.24654025     -0.74147233
O       1.76709144      1.77193160     -1.02818570
S       3.33278772     -0.32358933     -1.28715671
C       1.81769581     -0.85222580     -2.13342930
C       0.75155957     -1.27669385     -1.13299754
O       0.66009631     -2.44932802     -0.77794202
N      -0.04766787     -0.22910735     -0.71025110
C      -1.14840251     -0.28008002      0.16711812
C      -1.69605153     -1.46223203      0.66712880
C      -2.79595088     -1.42296278      1.53062638
C      -3.35767807     -0.20248229      1.89840356
C      -2.82087865      0.98211076      1.40211694
C      -1.72227880      0.94266250      0.53976176
H       3.59183571      2.69751310      0.48361904
H       4.60147770      1.28239825      0.29751506
H       2.05329554     -1.71837039     -2.76113373
H       1.43854712     -0.07331792     -2.80308478
H       0.26031128      0.70640987     -0.98031365
H      -1.29343170     -2.43449750      0.40167778
H      -3.21192014     -2.35151864      1.91342808
H      -4.21215201     -0.17656795      2.56931940
H      -3.25555655      1.93711939      1.68483949
H      -1.31890999      1.88069479      0.16572061
