38
CN(C)C(=O)NC1CCC2C3CCC(C3)C12
C       4.92657164     -1.19216430      0.31024702
N       3.77248247     -0.31130063      0.25254328
C       4.00489766      0.98221990     -0.37591114
C       2.52230658     -0.91467736      0.32310373
O       2.36669189     -2.12879534      0.41857614
N       1.46542824     -0.03895169      0.28356801
C       0.10295083     -0.52732275      0.38457845
C      -0.28965565     -0.88637068      1.81814081
C      -1.81040843     -0.88990141      1.77297935
C      -2.15997964      0.30427458      0.88401807
C      -3.28482160      0.05577203     -0.14205996
C      -3.61062384      1.39346041     -0.83421862
C      -2.38104176      1.63073904     -1.72832365
C      -1.49796860      0.40156167     -1.43846673
C      -2.56209779     -0.68685623     -1.26945229
C      -0.91978866      0.54714701     -0.01326805
H       4.73289513     -2.05405730      0.95570387
H       5.15236639     -1.54692511     -0.69998682
H       5.78353624     -0.64273394      0.71063669
H       3.13829531      1.64325827     -0.32627660
H       4.84691522      1.47319907      0.12076813
H       4.24842333      0.81557592     -1.42993080
H       1.65387325      0.82859128      0.76151018
H       0.01300692     -1.41538956     -0.25301374
H       0.11436170     -1.85322104      2.13347674
H       0.06777861     -0.12752513      2.52556362
H      -2.24546513     -0.79054690      2.77243644
H      -2.17567981     -1.83293279      1.35109540
H      -2.36759090      1.18169712      1.50826785
H      -4.16177196     -0.44900380      0.26830731
H      -3.76561272      2.21038044     -0.12239981
H      -4.51187783      1.30333007     -1.45125420
H      -2.68174340      1.65424262     -2.78197092
H      -1.87956166      2.57560660     -1.49643639
H      -0.74749769      0.21168440     -2.20856599
H      -3.18373415     -0.82030250     -2.16186458
H      -2.15925435     -1.65842217     -0.97192676
H      -0.51660586      1.55466022      0.14980596
