46
CC(C)CN(CC(C)C)C(=O)COC(=O)c1ccccc1
C      -3.54425557      2.02647409     -1.47614890
C      -2.78958646      2.21723040     -0.15983263
C      -3.63265523      3.05344720      0.80527403
C      -2.42355682      0.87221794      0.49986791
N      -1.48609002      0.06726091     -0.29073550
C      -2.01693585     -1.12617396     -0.96079400
C      -2.33323766     -2.28847203      0.00299803
C      -1.08734594     -2.83162048      0.70226529
C      -3.03295984     -3.41631345     -0.75895778
C      -0.14480103      0.45845306     -0.29673109
O       0.24682702      1.43484402      0.34970005
C       0.82949602     -0.33315073     -1.18105127
O       2.18915344      0.06548071     -0.99308036
C       2.76624678     -0.45234061      0.12031556
O       2.26563693     -1.28532845      0.86034189
C       4.13298408      0.10327892      0.31078934
C       4.63084550      1.15665577     -0.46828181
C       5.92251413      1.64173690     -0.24862881
C       6.72039600      1.08071531      0.74822013
C       6.22994475      0.03602535      1.53051895
C       4.93936104     -0.45121358      1.31438967
H      -2.91791013      1.52512999     -2.22064182
H      -3.84016487      2.99319487     -1.89772234
H      -4.45099102      1.42930579     -1.33225903
H      -1.87440210      2.78046526     -0.37798411
H      -3.87738453      4.02640050      0.36605941
H      -3.08875243      3.23685881      1.73794297
H      -4.57205559      2.54775371      1.05355755
H      -1.95780571      1.05920390      1.47579051
H      -3.33201698      0.29031064      0.69184245
H      -1.32894612     -1.46518343     -1.73995359
H      -2.93335951     -0.82106099     -1.47969025
H      -3.02231772     -1.93737993      0.78027561
H      -0.59375750     -2.05526194      1.29461695
H      -1.35375719     -3.64431134      1.38689019
H      -0.36578557     -3.22854462     -0.01896429
H      -2.39082776     -3.82063824     -1.54890998
H      -3.29724174     -4.23709090     -0.08372806
H      -3.95723418     -3.05671719     -1.22345698
H       0.73192411     -1.41031218     -1.02511768
H       0.57846685     -0.11800252     -2.22509663
H       4.02095786      1.61496903     -1.24277040
H       6.30389229      2.46128338     -0.85284026
H       7.72430279      1.46189097      0.91899524
H       6.84993261     -0.39763546      2.31120504
H       4.56325289     -1.26383541      1.93304136
