29
Cc1ccccc1Oc1ccccc1C
C      -2.05024411     -2.37254160     -0.60654695
C      -2.21534926     -0.88737934     -0.46236457
C      -3.40590622     -0.26469825     -0.86235965
C      -3.56657935      1.11578292     -0.72392207
C      -2.54323316      1.88878035     -0.17869915
C      -1.35320772      1.28370635      0.22269644
C      -1.18240959     -0.09629439      0.06344252
O      -0.03156703     -0.73088118      0.48300986
C       1.16993049     -0.19266189      0.07082199
C       1.41303992      0.10152250     -1.27576177
C       2.65119024      0.61065487     -1.66455911
C       3.64982013      0.81146526     -0.71353696
C       3.41593533      0.49692352      0.62701113
C       2.17630277     -0.01665636      1.03284623
C       1.93222134     -0.35997598      2.47378799
H      -2.95239138     -2.83885561     -1.01624954
H      -1.85479893     -2.82938717      0.36897472
H      -1.22124296     -2.59698090     -1.28546288
H      -4.21973279     -0.85207354     -1.28163830
H      -4.49537230      1.58704320     -1.03550341
H      -2.67362810      2.96117522     -0.06098955
H      -0.56574372      1.88948507      0.66237929
H       0.64440153     -0.06836889     -2.02457514
H       2.83803178      0.84509788     -2.70907661
H       4.61604540      1.20691174     -1.01661589
H       4.21109111      0.65213569      1.35278945
H       1.67131498     -1.41857382      2.57301817
H       1.12003640      0.25368625      2.87667137
H       2.82204519     -0.17904188      3.08587411
