29
CC(C)(NC(=O)c1ccccc1)C(N)=O
C      -2.45161976     -1.30524515     -0.16112435
C      -1.90524997      0.11572870      0.02056431
C      -2.38333845      1.04394040     -1.10222571
N      -0.43668927      0.11529483      0.12042581
C       0.42431838     -0.30518643     -0.86444680
O       0.05631325     -0.73632488     -1.95100916
C       1.87878029     -0.24426697     -0.54244091
C       2.74317275     -1.12034069     -1.21238825
C       4.11333245     -1.09943150     -0.94557423
C       4.62777014     -0.19767702     -0.01516030
C       3.77600189      0.68854242      0.64396826
C       2.40379905      0.67072799      0.38015782
C      -2.39401220      0.67342428      1.38920793
N      -3.73797329      0.81112862      1.57609850
O      -1.61907500      0.97951181      2.29728602
H      -2.12353036     -1.95758378      0.65670984
H      -2.11269680     -1.75721099     -1.09856041
H      -3.54694662     -1.31987470     -0.17172533
H      -2.03294946      0.71198794     -2.08457344
H      -3.47655074      1.09479504     -1.14917421
H      -2.01438834      2.06488058     -0.94862031
H      -0.07603813      0.33196681      1.04550267
H       2.34839530     -1.82346331     -1.94325172
H       4.77756221     -1.78448769     -1.46638332
H       5.69531816     -0.17985863      0.19048237
H       4.18197838      1.40029979      1.35884039
H       1.76784257      1.39273485      0.88437263
H      -4.05289954      1.16782724      2.46927643
H      -4.43062688      0.56816041      0.88206545
