48
COc1ccc2cc(C(C)C(=O)OCC(=O)N(C)CC(N)=O)ccc2c1
C       5.94355183      5.54058756     -0.82617246
O       5.60934044      4.37390064     -1.56718548
C       4.75162644      3.48869094     -0.97367302
C       4.16658179      3.63126190      0.28223014
C       3.30271821      2.64455407      0.77029062
C       3.01045882      1.50084953      0.01147218
C       2.14442826      0.50266305      0.49020483
C       1.85447941     -0.64089543     -0.27313974
C       0.91446600     -1.71615587      0.24247383
C       1.46600464     -2.40123161      1.49497365
C      -0.48036584     -1.16449969      0.50240096
O      -0.90527151     -0.80266535      1.59310712
O      -1.18779475     -1.10107124     -0.66410944
C      -2.53937592     -0.67042542     -0.49960764
C      -3.43206885     -1.75930463      0.11087744
O      -3.04535728     -2.92993976      0.19558160
N      -4.70180644     -1.39398225      0.53484663
C      -5.35671279     -0.13484344      0.21426378
C      -5.51616910     -2.38370832      1.25053021
C      -6.32715875     -3.29622831      0.32462178
N      -5.66723388     -3.78088249     -0.77049308
O      -7.46539149     -3.67556533      0.58499384
C       2.44719331     -0.77418793     -1.53426485
C       3.30993908      0.21069275     -2.02164873
C       3.60060039      1.35280077     -1.26075042
C       4.46540407      2.35254288     -1.73647210
H       6.45518371      5.28275507      0.10699073
H       6.63516412      6.13434626     -1.43158510
H       5.05703886      6.15438089     -0.63549678
H       4.35844402      4.49494824      0.90964094
H       2.85789033      2.77738737      1.75432762
H       1.68773518      0.62160775      1.47248297
H       0.80458590     -2.50448223     -0.51506039
H       0.79245556     -3.20011979      1.82495157
H       2.44815496     -2.84508450      1.29825960
H       1.57642779     -1.70353435      2.33265179
H      -2.92313713     -0.44289705     -1.49940727
H      -2.57286675      0.24585889      0.10022263
H      -5.57566702      0.39121808      1.14796691
H      -6.29290802     -0.34817842     -0.31050352
H      -4.74695561      0.50718871     -0.42199922
H      -4.86893923     -3.02216034      1.86243572
H      -6.20219954     -1.85337303      1.91982631
H      -4.65033532     -3.81896419     -0.72674611
H      -6.13027183     -4.52909741     -1.26865672
H       2.24377373     -1.64602014     -2.15275014
H       3.75602345      0.07921651     -3.00524751
H       4.92831673      2.25204666     -2.71590758
