16
CC(O)CCO
C      -1.80827797     -1.13714603     -0.01635409
C      -0.83013248      0.01602009     -0.18784142
O      -0.56666631      0.15710844     -1.58157147
C       0.47382707     -0.24281411      0.57698434
C       1.42034213      0.95294696      0.52828219
O       1.79117694      1.24303495     -0.81535040
H      -2.07309464     -1.28195836      1.03538573
H      -1.38651131     -2.07087855     -0.40461576
H      -2.72580277     -0.94724316     -0.58386742
H      -1.30027514      0.94178397      0.16243942
H       0.12971816      0.84221629     -1.66422072
H       0.25370495     -0.47923943      1.62408028
H       0.98248645     -1.10628733      0.13028038
H       2.32936840      0.75299125      1.10448663
H       0.94169460      1.84334153      0.94775586
H       2.36844191      0.51612351     -1.11499722
