37
C[Si](C)(C)O[Si](C)(C)O[Si](C)(C)C
C       3.02814555      0.86251113     -1.99861202
Si      2.41539432      0.41748764     -0.27674284
C       3.86474482     -0.26664078      0.70666598
C       1.82108069      1.99200510      0.56036302
O       1.19235535     -0.71586164     -0.38396681
Si     -0.01682943     -1.40651312      0.53446424
C      -0.70582375     -2.91493789     -0.34656185
C       0.64733746     -1.97251525      2.19722921
O      -1.20398203     -0.25638130      0.75920277
Si     -2.40381836      0.54971345     -0.07889373
C      -3.87492054     -0.58267743     -0.37770409
C      -1.78329246      1.16740576     -1.74216296
C      -2.99346471      2.03306278      0.91626281
H       2.21494542      1.28314680     -2.59745897
H       3.40965382     -0.02518863     -2.51154006
H       3.83304771      1.60120592     -1.94272854
H       4.24303070     -1.18350069      0.24517955
H       3.56176111     -0.49744734      1.73205040
H       4.68076756      0.46093003      0.74582364
H       1.47290208      1.78307110      1.57618799
H       0.99641126      2.44078731     -0.00045566
H       2.63187187      2.72404927      0.62059627
H      -1.07975633     -2.64685587     -1.33905805
H      -1.52950260     -3.35315861      0.22466385
H       0.07042677     -3.67608029     -0.46881337
H      -0.14370308     -2.44724941      2.78521696
H       1.45711399     -2.69585651      2.06373251
H       1.03463428     -1.12406875      2.76896548
H      -3.58496249     -1.43903350     -0.99338502
H      -4.26867105     -0.95882509      0.57107155
H      -4.67580427     -0.04496309     -0.89368308
H      -1.44762248      0.33284128     -2.36474532
H      -2.57902027      1.69446698     -2.27688088
H      -0.94498710      1.85726187     -1.61046607
H      -3.78313300      2.56786034      0.38046766
H      -3.38941365      1.71282928      1.88442113
H      -2.16691716      2.72711912      1.09501061
