22
Cc1cc(Cl)ccc1OCC(=O)O
C       0.54205670      2.16527358      0.78473895
C       1.03608341      0.77763873      0.47930988
C       2.38628796      0.46063430      0.69993907
C       2.86133658     -0.81878931      0.42291762
Cl      4.51684590     -1.19625986      0.69684038
C       2.00261401     -1.79334246     -0.07456046
C       0.65621046     -1.48946324     -0.29828304
C       0.16546063     -0.20808841     -0.02435417
O      -1.13347653      0.18864878     -0.20873823
C      -2.04902782     -0.78480214     -0.71922342
C      -3.41967853     -0.14053486     -0.84527714
O      -4.41272570     -0.72357768     -1.25539705
O      -3.44210077      1.15807474     -0.45619815
H      -0.24376207      2.12805395      1.54613980
H       1.34502544      2.80415214      1.16718978
H       0.14781389      2.63471411     -0.12235807
H       3.06874305      1.21317899      1.08863153
H       2.37288839     -2.79231691     -0.29101004
H       0.02315158     -2.28078870     -0.68715795
H      -2.13997582     -1.62218583     -0.01961880
H      -1.74096879     -1.10593879     -1.71967359
H      -2.54280198      1.42571887     -0.16385690
