23
CC(Sc1ccccc1)S(=O)(=O)O
C      -2.42605984     -1.62197571     -0.44156435
C      -1.56395148     -0.38391260     -0.21376079
S      -0.47211946     -0.68600651      1.24698689
C       1.09092683     -0.21193294      0.53790319
C       1.97121508     -1.19866176      0.08390534
C       3.19705762     -0.84138171     -0.48132761
C       3.54960895      0.50273657     -0.58982730
C       2.68004131      1.48969314     -0.12863942
C       1.45428890      1.13367818      0.43780390
S      -2.60543712      1.10480472     -0.05475935
O      -1.79453697      2.25053441      0.29812194
O      -3.55444642      1.15970199     -1.14424298
O      -3.41563314      0.71859950      1.29080036
H      -3.09434118     -1.81852741      0.40401172
H      -3.05662427     -1.49639189     -1.32845953
H      -1.80850572     -2.51165604     -0.60769647
H      -0.95406153     -0.21106113     -1.10746040
H       1.71370129     -2.25187313      0.16745042
H       3.87833403     -1.61195384     -0.83334537
H       4.50479489      0.78146270     -1.02804998
H       2.95672782      2.53841331     -0.20565212
H       0.79577003      1.91936320      0.80117506
H      -3.04674962      1.24634694      2.03203655
