22
Clc1cc(Cl)c(-c2cccc(Cl)c2Cl)c(Cl)c1
Cl      5.26803632      0.19607346      0.13199066
C       3.55030403      0.12490149      0.08474135
C       2.85804934     -0.51206819      1.10795895
C       1.46169991     -0.57067462      1.06761839
Cl      0.66882696     -1.38525061      2.37550585
C       0.73286287      0.00614184      0.00606240
C      -0.74390928     -0.04631899     -0.02948238
C      -1.37014350     -1.13598302     -0.66552035
C      -2.75997603     -1.23191578     -0.72604911
C      -3.54941510     -0.23947813     -0.15137853
C      -2.95280623      0.85222941      0.48573985
Cl     -4.00778737      2.03926578      1.17271422
C      -1.55398141      0.95587976      0.55078642
Cl     -0.80685257      2.31267513      1.34262483
C       1.46879527      0.64162296     -1.01637912
Cl      0.68499901      1.37822753     -2.37499178
C       2.86515207      0.70152658     -0.97826958
H       3.40124412     -0.96075565      1.93629703
H      -0.76951747     -1.92250034     -1.12104116
H      -3.22657179     -2.08058602     -1.22135026
H      -4.63289016     -0.32118928     -0.20258991
H       3.41388100      1.19817670     -1.77498777
