62
CSC(=O)C1(OC(C)=O)C(C)CC2C3CCC4=CC(=O)C=CC4(C)C3(F)C(O)CC21C
C       5.79340429      2.53510748     -0.89870099
S       4.97267423      1.55150884      0.37386277
C       3.36838720      1.41657461     -0.37965861
O       3.01550803      2.26414599     -1.19009768
C       2.47877323      0.21165250      0.09021330
O       3.14882198     -1.07882377      0.11131844
C       4.00068364     -1.42869753     -0.88636052
C       4.59092354     -2.77528295     -0.60286685
O       4.25608760     -0.75632254     -1.87236001
C       1.98635588      0.44110018      1.56356833
C       2.90741020     -0.03807994      2.69128189
C       0.63160170     -0.29177060      1.67835909
C       0.28715777     -0.82278081      0.28022953
C      -1.21915084     -0.95750612     -0.03712752
C      -1.91187376     -1.84883641      1.00842637
C      -3.37007287     -2.10541198      0.65138065
C      -4.09492440     -0.79621944      0.48021771
C      -5.15465520     -0.51434708      1.25957003
C      -5.86075557      0.77972889      1.18534334
O      -6.82826458      1.02006010      1.89567751
C      -5.35278656      1.76576987      0.21677187
C      -4.29898479      1.48832865     -0.56221751
C      -3.50660665      0.18044620     -0.55954338
C      -3.70845508     -0.42285817     -1.97037626
C      -1.96500107      0.39799029     -0.22098896
F      -1.91715027      1.06064789      0.98708915
C      -1.17577868      1.28167413     -1.21960377
O      -1.70136071      2.61124256     -1.27528099
C       0.31248500      1.42444391     -0.85571086
C       1.08350887      0.08589600     -0.68585248
C       1.22138750     -0.58325169     -2.06644673
H       6.84653018      2.66018068     -0.63356040
H       5.73854917      2.03343908     -1.86853923
H       5.33813203      3.52604666     -0.97346012
H       5.20974636     -3.08459579     -1.45040010
H       3.79303677     -3.51083789     -0.47318978
H       5.21738565     -2.72233153      0.29106395
H       1.80889552      1.51339266      1.72383738
H       3.12707595     -1.10883380      2.61530753
H       3.85305138      0.50554428      2.71343272
H       2.42658928      0.12730552      3.66245674
H      -0.11309608      0.40882854      2.06515774
H       0.66712080     -1.12671666      2.39023092
H       0.70744316     -1.83897872      0.22042178
H      -1.27322385     -1.49426960     -0.99332756
H      -1.86101869     -1.38486130      2.00106973
H      -1.39082436     -2.81083107      1.08151737
H      -3.82627224     -2.71667193      1.44014354
H      -3.43895939     -2.69485475     -0.27010052
H      -5.54233858     -1.20505149      2.00016627
H      -5.88636353      2.70665783      0.16109062
H      -4.00861777      2.24760230     -1.28571746
H      -3.13833807     -1.34223940     -2.12704037
H      -4.76309316     -0.67038458     -2.14769089
H      -3.41144297      0.27933141     -2.75720940
H      -1.25897289      0.87290606     -2.23023926
H      -1.72745926      2.94064397     -0.35611766
H       0.76847507      2.02695986     -1.64981186
H       0.39131352      2.04192417      0.04748518
H       1.87935610      0.00045703     -2.71814654
H       0.26084756     -0.67541527     -2.58157105
H       1.61712277     -1.60047532     -1.99332390
