23
O=c1[nH]c(=O)n(C2CCCO2)cc1F
O       4.50031453      1.10148984      0.43625626
C       3.34768798      0.69195695      0.36189413
N       2.99071294     -0.34732563     -0.45735015
C       1.72338017     -0.84514733     -0.63489043
O       1.52093416     -1.74592649     -1.44561422
N       0.72878965     -0.25763630      0.14110046
C      -0.62863958     -0.75370388     -0.03842660
C      -1.32037340     -0.16978797     -1.26365208
C      -2.77241129     -0.27487602     -0.87461214
C      -2.72236974      0.04641120      0.60260819
O      -1.45966757     -0.42733859      1.09171931
C       1.00426154      0.79868304      0.99239413
C       2.23792436      1.28176065      1.13287474
F       2.52278904      2.30886510      1.95383969
H       3.72233300     -0.76306249     -1.01271873
H      -0.60358058     -1.84880593     -0.10640483
H      -1.07694390     -0.70361717     -2.18663917
H      -1.04976113      0.88429187     -1.40316927
H      -3.42853351      0.39532774     -1.43583769
H      -3.12248021     -1.30328996     -1.02271679
H      -3.53471211     -0.42468114      1.16297402
H      -2.76129712      1.12747178      0.77414029
H       0.18164277      1.22894074      1.55388322
