32
O=C(O)CCCCCCCCC(=O)O
O      -4.30893584      1.38043494      1.55810814
C      -4.71028782      1.08762231      0.44548724
O      -5.61217806      1.86743173     -0.18318628
C      -4.34247781     -0.11848349     -0.37758173
C      -3.12690309     -0.86562288      0.17013479
C      -1.81715620     -0.10748802     -0.06772994
C      -0.61765591     -0.89197731      0.46808763
C       0.69240126     -0.13717084      0.23052791
C       1.89042261     -0.92617028      0.76328585
C       3.21570909     -0.16804628      0.65128627
C       3.64855394      0.08833728     -0.79156150
C       5.01875529      0.70814986     -0.85770806
O       5.72375416      1.05887926      0.07218776
O       5.43604804      0.86550876     -2.12985046
H      -5.77729008      2.59627443      0.45121140
H      -5.20815058     -0.79026358     -0.37300498
H      -4.15236156      0.19757959     -1.40921089
H      -3.25380789     -1.06093930      1.24187389
H      -3.06669910     -1.84133054     -0.32760122
H      -1.85592510      0.87365882      0.41924564
H      -1.68747377      0.07096142     -1.14214946
H      -0.74814355     -1.07286137      1.54197627
H      -0.57050867     -1.87204553     -0.02205441
H       0.81036563      0.04529128     -0.84343456
H       0.64711486      0.84090494      0.72444069
H       1.96879475     -1.88337766      0.23353828
H       1.72130199     -1.16395604      1.82090078
H       3.99050826     -0.75411376      1.16208554
H       3.14456519      0.78383555      1.19237475
H       2.95007710      0.77208142     -1.28427541
H       3.67556291     -0.85797027     -1.34293909
H       6.32201993      1.27486555     -2.03828639
