39
CC(=O)Oc1ccccc1C(=O)OCC(=O)N1CCOCC1
C      -2.47620741      2.58199828     -0.15691128
C      -2.87089494      1.19537151     -0.57131194
O      -3.16748960      0.87601973     -1.71565586
O      -2.92623939      0.38049227      0.55528315
C      -3.30209842     -0.92945939      0.24783672
C      -4.66551514     -1.23661848      0.29709555
C      -5.09486459     -2.52526860     -0.01988288
C      -4.16663744     -3.50300658     -0.37995123
C      -2.80305267     -3.19870466     -0.40870481
C      -2.35841683     -1.91203126     -0.07344169
C      -0.90026581     -1.66788264     -0.09184594
O      -0.13415052     -2.20456569     -0.87676959
O      -0.54464210     -0.86678751      0.94328137
C       0.84985644     -0.55762487      0.98359842
C       1.22307265      0.57137759      0.01314859
O       0.34867057      1.24185074     -0.54243017
N       2.57862449      0.84061773     -0.16999066
C       3.64734080     -0.07846768      0.23516715
C       4.99770568      0.63428488      0.36401765
O       5.31478742      1.37232634     -0.82193558
C       4.31718023      2.37470994     -1.06411788
C       2.93890121      1.74341051     -1.26795745
H      -3.36243814      3.13056860      0.17008230
H      -2.01512226      3.09464308     -1.00564297
H      -1.74184655      2.54484997      0.65231324
H      -5.39100293     -0.47216865      0.56052193
H      -6.15544894     -2.76449917      0.00089931
H      -4.50457077     -4.50335836     -0.64062731
H      -2.08733433     -3.96883533     -0.69009089
H       1.44107605     -1.45917327      0.79366629
H       1.07411393     -0.21236696      1.99828247
H       3.40220981     -0.55913774      1.18574450
H       3.70231462     -0.85294774     -0.53892133
H       4.99768435      1.31945530      1.22024001
H       5.79292282     -0.10009943      0.52609328
H       4.61072945      2.93042053     -1.96011902
H       4.30709810      3.07775352     -0.22269583
H       2.93953900      1.13493641     -2.18064869
H       2.18441118      2.52791706     -1.38665112
