24
CCCCC(O)CC
C       3.82780596     -0.27912615     -0.40453239
C       2.61210086      0.16901021      0.39096035
C       1.31008671     -0.19346134     -0.32388498
C       0.08854886      0.25959636      0.48298438
C      -1.23057344     -0.12873144     -0.19708011
O      -1.31773963      0.50550120     -1.47106186
C      -2.43497273      0.27441988      0.66118556
C      -3.75703113     -0.15704852      0.04035326
H       3.82382940     -1.36421382     -0.54910547
H       4.74728098     -0.01031997      0.12482390
H       3.85048067      0.19892547     -1.38905622
H       2.66290062      1.25313776      0.54516320
H       2.63714573     -0.30127561      1.38085414
H       1.29771229      0.27417030     -1.31556561
H       1.26570324     -1.27858325     -0.47713569
H       0.13356966      1.34945350      0.60323060
H       0.12893978     -0.18431927      1.48502764
H      -1.24929903     -1.21115820     -0.36821832
H      -1.29989270      1.46707428     -1.32703991
H      -2.45563930      1.36371521      0.78754734
H      -2.34761577     -0.17232819      1.65832051
H      -3.91779345      0.32329678     -0.92980059
H      -3.78640694     -1.24187695     -0.10282038
H      -4.58914064      0.12128104      0.69485067
