21
C=CCCCCC
C       3.07132784      0.83471228      0.37982660
C       2.45575086     -0.04084356     -0.42465247
C       1.62886314     -1.19596659      0.06363846
C       0.17749328     -1.14269559     -0.42362384
C      -0.61186902      0.02891088      0.16854465
C      -2.07175906     -0.00180338     -0.28531357
C      -2.86122738      1.15890028      0.29876943
H       3.66053467      1.64814525     -0.03233055
H       3.00213140      0.76340275      1.46081196
H       2.55864223      0.06999868     -1.50230592
H       2.08939776     -2.11995178     -0.30666024
H       1.64640640     -1.25568416      1.15875552
H      -0.31355609     -2.08326998     -0.14427837
H       0.15399526     -1.08796145     -1.51934233
H      -0.56741481     -0.01508292      1.26357413
H      -0.15958143      0.97981470     -0.13623555
H      -2.53826204     -0.94468673      0.02295350
H      -2.12243398      0.04315119     -1.37944236
H      -2.85674512      1.12519497      1.39292372
H      -3.90173455      1.11719813     -0.03814366
H      -2.43995937      2.11851701     -0.01746912
