59
CN(CCC#N)c1ccc(C=CC2=[N+](C)c3ccccc3C2(C)C)cc1.O=P([O-])(O)O
C       6.52661772      1.09959493      0.02341999
N       5.57283101      0.18631943      0.65284745
C       5.95503927     -1.24501352      0.67082768
C       5.71483367     -1.96600373     -0.66077189
C       4.31487311     -2.38026905     -0.83303298
N       3.21451210     -2.72254946     -0.97897969
C       4.20968417      0.48544619      0.60420297
C       3.31627955     -0.13090907      1.49458345
C       1.93466738      0.07283149      1.41607331
C       1.40488318      0.91748532      0.44148881
C      -0.04199139      1.08255409      0.28728300
C      -0.81370820      0.02474508     -0.00358099
C      -2.27929470      0.13837957     -0.13208472
N      -2.94601958      1.00340778     -0.83779706
C      -2.48656749      2.03660124     -1.77166146
C      -4.38915290      0.79234554     -0.63940064
C      -5.44836249      1.50637881     -1.17057934
C      -6.73805368      1.10090531     -0.81808389
C      -6.93608816      0.00983840      0.04539714
C      -5.85077449     -0.69389521      0.57330715
C      -4.57549880     -0.28574366      0.21931574
C      -3.23156715     -0.82909697      0.62029735
C      -3.01845939     -0.72857779      2.13313777
C      -3.05157446     -2.26813189      0.12899270
C       2.27690975      1.60029946     -0.40531238
C       3.65988116      1.38724186     -0.31859749
O      -0.51884877      0.87484998      1.40925243
P      -0.04513330      0.42916150      0.06324985
O       0.28075200      1.32881374     -1.08545299
O      -1.08725616     -0.69088389     -0.41639898
O       1.22270241     -0.53689209      0.23708861
H       7.54760961      0.86614513      0.34507435
H       6.33479674      2.13694623      0.31954981
H       6.49305902      1.02347454     -1.06851253
H       5.47306472     -1.77766439      1.49907150
H       7.02928846     -1.29779973      0.89217414
H       6.34027777     -2.86635903     -0.68445014
H       6.02735665     -1.34215324     -1.50490231
H       3.68941611     -0.78912770      2.27533956
H       1.29125163     -0.44960500      2.11934515
H      -0.41811273      2.09282023      0.41706363
H      -0.38955980     -0.97548292     -0.07999849
H      -1.41872380      1.91931904     -1.96698096
H      -3.02420881      1.92748529     -2.71820381
H      -2.68034081      3.01673456     -1.32864885
H      -5.31806680      2.35344449     -1.83538810
H      -7.60429984      1.63201671     -1.21213486
H      -7.95132742     -0.28923050      0.30682763
H      -6.01812389     -1.53513570      1.24163461
H      -2.02236825     -1.08408994      2.41923622
H      -3.75473623     -1.32594585      2.68289536
H      -3.10564736      0.30735508      2.48239814
H      -3.80304707     -2.93711723      0.56344955
H      -2.06539568     -2.66172596      0.39778834
H      -3.14106432     -2.33412259     -0.96169987
H       1.90167522      2.28091312     -1.16477264
H       4.29332771      1.91472117     -1.02613123
H      -1.52015694     -0.94632081      0.41679241
H       1.66794075     -0.45872843     -0.62453133
