60
CCn1nc2cc(-c3cc4c5c(n(CC)nc5c3)-c3ccccc3C4=O)cc3c2c1-c1ccccc1C3=O
C       6.75496499      1.56626770     -2.59182652
C       6.09868881      2.16927615     -1.36252066
N       4.91811584      1.43368071     -0.94969379
N       3.72234866      1.88429639     -1.43007401
C       2.78993759      1.10668269     -0.86265302
C       1.38780273      1.10295310     -0.95721790
C       0.73861959      0.09408739     -0.17647355
C      -0.73768265      0.00373035     -0.20496571
C      -1.51967153      1.16277872      0.16594724
C      -2.92477217      1.17272007      0.16927722
C      -3.45272954     -0.04006091     -0.21970858
C      -4.80584544     -0.25601657     -0.28338124
N      -4.87826949     -1.55684458     -0.73562092
C      -6.04052550     -2.35697188     -1.07360193
C      -6.61064482     -3.08564472      0.13035081
N      -3.66092368     -2.14996834     -0.90868615
C      -2.75550906     -1.21182840     -0.59863986
C      -1.35027315     -1.22784553     -0.60091697
C      -5.79819925      0.76662843      0.07118660
C      -7.18292468      0.58397721      0.06805120
C      -8.04234289      1.63187114      0.42457311
C      -7.53376216      2.87541221      0.79499814
C      -6.15778795      3.08095254      0.81871008
C      -5.29455228      2.03748222      0.46438361
C      -3.81470329      2.28457869      0.52122885
O      -3.34572308      3.36708678      0.84857860
C       1.48363233     -0.83934725      0.63972298
C       2.88595427     -0.83328828      0.72852778
C       3.45011111      0.15854678     -0.04534866
C       4.80751567      0.34531367     -0.10998392
C       5.76770025     -0.49539604      0.61627476
C       7.15773853     -0.37631492      0.54956409
C       7.98424705     -1.23387468      1.28797150
C       7.43729140     -2.22646368      2.09907246
C       6.05586171     -2.37525894      2.17419179
C       5.22543057     -1.52192462      1.43815511
C       3.73994937     -1.72293126      1.52310478
O       3.23810053     -2.59509919      2.22051958
H       7.64702368      2.13827300     -2.86474090
H       7.05264248      0.52680904     -2.42318475
H       6.06933801      1.57744646     -3.44599725
H       5.78758205      3.19876565     -1.57861871
H       6.78351916      2.23092099     -0.51390158
H       0.85540410      1.80975161     -1.58009608
H      -1.00504483      2.07671863      0.46851439
H      -6.77769504     -1.71152223     -1.55619959
H      -5.73042273     -3.08594014     -1.83239712
H      -6.90452730     -2.39041147      0.92269033
H      -7.49138844     -3.66658565     -0.15989868
H      -5.87316488     -3.77531377      0.55496717
H      -0.78947014     -2.10643313     -0.89173749
H      -7.64270730     -0.35932649     -0.19487680
H      -9.11899681      1.47322503      0.41603478
H      -8.20855388      3.68218942      1.07112720
H      -5.75802535      4.04831812      1.11592305
H       0.94116442     -1.58297108      1.22662308
H       7.64720981      0.36252548     -0.07084192
H       9.06550259     -1.12691692      1.22577237
H       8.08678456     -2.88775432      2.66769749
H       5.62665748     -3.15501136      2.80006414
