40
O=C(O)c1cccc2cccc(-c3cccc4cccc(C(=O)O)c34)c12
O       1.81508182      2.58946907      0.85351430
C       1.50183770      1.45401693      1.15441132
O       0.54861293      1.16991693      2.05537044
C       2.16183472      0.22490201      0.69442302
C       3.34332107     -0.07777379      1.39243411
C       4.08541095     -1.19360967      1.04620718
C       3.65353471     -1.99760426     -0.00235112
C       2.48023194     -1.70545596     -0.72007167
C       2.12585488     -2.56037852     -1.77320075
C       0.98998066     -2.33179543     -2.53628515
C       0.18292651     -1.24258562     -2.24753435
C       0.48597396     -0.36612266     -1.18352402
C      -0.45367273      0.75656520     -0.97931730
C      -0.12296864      1.96718603     -1.62520961
C      -0.92723541      3.08988239     -1.50773776
C      -2.08767919      3.02137196     -0.75048373
C      -2.46948163      1.83511445     -0.10816223
C      -3.66630809      1.84279628      0.62984874
C      -4.12574315      0.70591188      1.28468587
C      -3.38804989     -0.46269582      1.20836791
C      -2.18359011     -0.48759769      0.48490526
C      -1.53080709     -1.80346936      0.46872459
O      -1.82766727     -2.74022934     -0.24700615
O      -0.60781772     -1.88521167      1.43954178
C      -1.67034964      0.65859333     -0.20632246
C       1.67737304     -0.57368813     -0.39301249
H       0.14776064      2.03656428      2.26980781
H       3.67893871      0.56338392      2.20483483
H       4.99904938     -1.43472980      1.58282635
H       4.25587854     -2.86674739     -0.26435663
H       2.74311033     -3.42357492     -2.01726053
H       0.72818790     -3.00451653     -3.34849839
H      -0.71252487     -1.08126595     -2.84712319
H       0.79168047      2.03794537     -2.21323408
H      -0.64436621      4.01722709     -1.99844874
H      -2.70225770      3.91670342     -0.67078443
H      -4.26545570      2.75030338      0.69564332
H      -5.05708875      0.73289738      1.84388310
H      -3.74491163     -1.36042387      1.70881959
H      -0.20860545     -2.77127493      1.32436611
