20
Cc1ccc(N)cc1C
C      -2.31929578     -1.02628221     -0.02531765
C      -0.86484376     -0.64532465     -0.00737123
C       0.10074130     -1.62901136      0.24702301
C       1.46075153     -1.30945110      0.26282488
C       1.88476845      0.00303749      0.06598876
N       3.25051946      0.29753902     -0.03120441
C       0.93001937      0.97170059     -0.25386418
C      -0.44400146      0.67068258     -0.27664291
C      -1.43013931      1.75954406     -0.59898937
H      -2.46593028     -2.06589404      0.28664572
H      -2.72588230     -0.92033059     -1.03597971
H      -2.88870908     -0.39680273      0.66577008
H      -0.19720936     -2.66008823      0.42338141
H       2.18628437     -2.09997789      0.43265698
H       3.84038310     -0.33094097      0.50463501
H       3.46882044      1.27328228      0.14277955
H       1.25939166      1.98090903     -0.48990673
H      -0.92696082      2.70860422     -0.81248286
H      -2.10223400      1.92605944      0.24869196
H      -2.01647354      1.49274507     -1.48396728
