38
CCCCCCCCN(C)C.[B+3].[Cl-].[Cl-].[Cl-]
C       4.73904693     -0.26021513     -1.61251108
C       4.15903918     -0.31719621     -0.22768467
C       2.72473596      0.21584255     -0.24145470
C       2.17944428      0.14204276      1.16334886
C       0.76554707      0.64798299      1.28697094
C      -0.11698481     -0.16982696      0.41678452
C      -1.57259217      0.24201013      0.46940224
C      -2.29973591     -0.69029304     -0.47663429
N      -3.71630229     -0.42018992     -0.52934912
C      -4.32769290     -0.77200367      0.73140704
C      -3.98324861      0.93930452     -0.91686929
B       0.00000000      0.00000000      0.00000000
Cl      0.00000000      0.00000000      0.00000000
Cl      0.00000000      0.00000000      0.00000000
Cl      0.00000000      0.00000000      0.00000000
H       4.21741853      0.54046141     -2.18017994
H       5.83639132     -0.11060446     -1.56326269
H       4.50351755     -1.21306725     -2.17099858
H       4.12898474     -1.33678466      0.17593354
H       4.77542422      0.29209310      0.46549669
H       2.15255158     -0.41780688     -0.94273795
H       2.71683003      1.24741989     -0.62821050
H       2.86939300      0.68802918      1.86964689
H       2.26581419     -0.92748022      1.48048414
H       0.44677788      0.61320130      2.33888756
H       0.80125825      1.72392184      0.97444975
H       0.17697350     -0.12917685     -0.64068812
H      -0.07858088     -1.21797147      0.77368169
H      -1.75353860      1.27867108      0.15571694
H      -1.96802341      0.15433739      1.51975000
H      -1.83248244     -0.56171908     -1.47511729
H      -2.12786140     -1.72528626     -0.15764158
H      -5.03314004     -1.62989607      0.55281449
H      -3.57842053     -1.14603955      1.44184797
H      -4.95756106      0.04529873      1.13302705
H      -3.76249286      1.67264273     -0.12880083
H      -5.01842867      1.02379856     -1.26627186
H      -3.33206159      1.15617394     -1.79123781
