14
CCCC
C      -1.92086646     -0.11767805      0.41001698
C      -0.46952456      0.11972937      0.79562024
C       0.46952430     -0.11972673     -0.38491088
C       1.92086660      0.11767615      0.00069350
H      -2.07378644     -1.14792418      0.07303616
H      -2.57519223      0.05927576      1.26935735
H      -2.22815298      0.55684990     -0.39554764
H      -0.20382669     -0.54702295      1.62424941
H      -0.35732362      1.14815073      1.15830558
H       0.20382843      0.54702786     -1.21353870
H       0.35732120     -1.14814719     -0.74759793
H       2.07378927      1.14792189      0.33767495
H       2.22815039     -0.55685286      0.80625832
H       2.57519279     -0.05927969     -0.85864662
