21
CC(=O)Nc1ccccc1[N+](=O)[O-]
C       3.53374270      0.08294729     -0.00107748
C       2.22480470     -0.66712768     -0.02038430
O       2.20298823     -1.89216884     -0.02777771
N       1.13605103      0.18455174      0.00024728
C      -0.24693093     -0.14046654     -0.00961897
C      -0.68179374     -1.47240511     -0.06988719
C      -2.04375914     -1.79787421     -0.08183236
C      -3.00778504     -0.79855294     -0.03437922
C      -2.61205812      0.53449307      0.02530110
C      -1.24179697      0.86695080      0.03775159
N      -0.89826796      2.29891111      0.10419455
O       0.30164292      2.61757258      0.07614054
O      -1.82651184      3.11614400      0.18517362
H       4.33229501     -0.56885163     -0.36705013
H       3.48751848      0.96130065     -0.65138518
H       3.75962392      0.39266877      1.02263642
H       1.35263977      1.18180050      0.03469474
H       0.01888100     -2.30169828     -0.11139349
H      -2.34424777     -2.84295902     -0.12907070
H      -4.06404523     -1.05781254     -0.04393162
H      -3.38299103      1.30257627      0.06164853
