31
O=C(c1cc([N+](=O)[O-])cc([N+](=O)[O-])c1)N(O)c1ccccc1
O       0.76093064     -1.32751799      1.41909999
C       0.32056731     -0.58407165      0.54581920
C      -1.16115321     -0.49033334      0.48082540
C      -1.80722183      0.75225164      0.51668618
C      -3.20779682      0.80037719      0.50165331
N      -3.88704105      2.10266062      0.52426555
O      -5.11488295      2.10936952      0.36679595
O      -3.19033127      3.11121394      0.69607510
C      -3.96845597     -0.37688526      0.46729621
C      -3.30438220     -1.61132025      0.45523785
N      -4.08486426     -2.85410575      0.42704583
O      -3.48105406     -3.90376890      0.17037702
O      -5.29908255     -2.77145114      0.65271624
C      -1.90507858     -1.67695884      0.46896010
N       1.05234333      0.15808264     -0.37325054
O       0.32518959      0.78493108     -1.41494738
C       2.46124435      0.36135674     -0.40789271
C       3.02272668      1.22562780     -1.36517856
C       4.40331951      1.44318102     -1.42808640
C       5.25031206      0.80190093     -0.53150061
C       4.71543742     -0.05051373      0.42861650
C       3.33324695     -0.26623753      0.49102613
H      -1.21495372      1.66589952      0.55961477
H      -5.05729183     -0.33394165      0.45665199
H      -1.38509560     -2.63490974      0.47973868
H       0.54748609      0.20300038     -2.16657643
H       2.39534725      1.76547443     -2.06990877
H       4.81300067      2.12007422     -2.17370890
H       6.32324178      0.97000831     -0.57550959
H       5.37100964     -0.55184235      1.13689146
H       2.97328265     -0.94155189      1.26116641
