29
O=C(NC(=O)c1cccnc1)Nc1ccccc1
O      -0.76022643      0.79394230      2.19467508
C      -0.43122032      0.37369666      1.08864229
N       0.91979709      0.29152451      0.81471741
C       1.54718253     -0.17987967     -0.32586274
O       0.94459148     -0.65582900     -1.28425157
C       3.02743073     -0.11687724     -0.34233359
C       3.77237630      0.80422960      0.39938432
C       5.16447427      0.78407581      0.31264145
C       5.76288304     -0.15129988     -0.51684185
N       5.07167048     -1.04500350     -1.25551866
C       3.71950076     -1.00340938     -1.15946341
N      -1.25865230     -0.02770329      0.07527567
C      -2.66505362     -0.04693304      0.04915120
C      -3.47200802      0.38775576      1.10187233
C      -4.86571520      0.33579124      0.99321793
C      -5.46244283     -0.15016445     -0.16793762
C      -4.66610248     -0.58519936     -1.22362070
C      -3.27414139     -0.53326942     -1.11496618
H       1.46865460      0.57482665      1.61159425
H       3.30070193      1.55787065      1.02209390
H       5.77096067      1.48860266      0.87246850
H       6.84380284     -0.20398259     -0.61687960
H       3.19805092     -1.73274656     -1.77551563
H      -0.78211431     -0.37809996     -0.75406084
H      -3.04833274      0.77413932      2.02316147
H      -5.48281788      0.67692865      1.82055018
H      -6.54545548     -0.18917863     -0.24853178
H      -5.12592105     -0.96529521     -2.13197128
H      -2.67187358     -0.87851260     -1.95195485
