43
CC(C)(COC(=O)c1ccccc1)COC(=O)c1ccccc1
C       1.18405682      1.04355499      2.77397896
C       0.25602910      0.51522523      1.66568305
C       0.64402308     -0.94130962      1.35469409
C      -1.20346270      0.56602431      2.16636173
O      -2.07719579      0.05053522      1.15254967
C      -3.34879053     -0.18841107      1.55579005
O      -3.79910940      0.03759702      2.66625933
C      -4.13590375     -0.78922629      0.44441136
C      -5.47728340     -1.12075764      0.68585321
C      -6.24830185     -1.70875309     -0.31923232
C      -5.68761447     -1.95944477     -1.57258962
C      -4.35860645     -1.62234743     -1.82406306
C      -3.57922300     -1.04508545     -0.81851708
C       0.39366868      1.39163408      0.39993102
O       1.74448975      1.38047814     -0.09279046
C       1.97071527      0.66855700     -1.22522881
O       1.13203895      0.06938825     -1.88034300
C       3.42024915      0.67793442     -1.56302499
C       3.82839661      0.04406197     -2.74634562
C       5.18092832     -0.00062396     -3.09079089
C       6.13232402      0.58780272     -2.25687672
C       5.73376842      1.22799705     -1.08276197
C       4.38150428      1.27393359     -0.73524509
H       2.23654963      1.02215336      2.46358385
H       0.93320679      2.07893191      3.04058085
H       1.09571893      0.43388057      3.68284026
H       0.06843181     -1.33804855      0.51223369
H       1.70682000     -1.03306448      1.10651409
H       0.45763584     -1.58925425      2.21774158
H      -1.49552922      1.59723650      2.38690410
H      -1.30594384     -0.02926338      3.07811086
H      -5.92471561     -0.92799368      1.66046740
H      -7.28564902     -1.97895925     -0.12204796
H      -6.29015465     -2.41548602     -2.35421201
H      -3.92519280     -1.81176335     -2.80426095
H      -2.54187302     -0.80427063     -1.03552217
H       0.16470178      2.43382732      0.64521891
H      -0.32114776      1.09544858     -0.37680584
H       3.09437322     -0.41736764     -3.40486478
H       5.48993690     -0.48875257     -4.01307272
H       7.18559962      0.55095099     -2.52362135
H       6.47654604      1.68812524     -0.43650401
H       4.09398423      1.77490469      0.18716044
