28
Clc1ccccc1-c1nnc(-c2ccccc2Cl)nn1
Cl     -2.85753529     -2.58866244      1.00846189
C      -3.56127259     -1.09601255      0.48203462
C      -4.96021239     -1.01250616      0.53274219
C      -5.61722902      0.12961054      0.07978047
C      -4.87995218      1.19042177     -0.43249415
C      -3.48574584      1.10959039     -0.48298899
C      -2.79158609     -0.02978981     -0.01854438
C      -1.33048889     -0.04966874     -0.08065486
N      -0.73486398      0.37783630     -1.21356023
N       0.62727509      0.41581540     -1.26664114
C       1.33048534      0.04964152     -0.17685680
C       2.79158377      0.02977142     -0.23896770
C       3.48575509     -1.10959337      0.22550537
C       4.87996260     -1.19040504      0.17502381
C       5.61723060     -0.12958526     -0.33725617
C       4.96020379      1.01250869     -0.79025190
C       3.56126265      1.09599320     -0.73956309
Cl      2.85751789      2.58863112     -1.26602536
N       0.73485971     -0.37786205      0.95605018
N      -0.62727912     -0.41584743      1.00912939
H      -5.54519209     -1.84423659      0.91941963
H      -6.70227326      0.18703827      0.12053437
H      -5.38590882      2.08306976     -0.79361188
H      -2.93072201      1.95726362     -0.88664199
H       2.93074313     -1.95725920      0.62919270
H       5.38592795     -2.08302958      0.53619115
H       6.70227631     -0.18698902     -0.37798762
H       5.54517762      1.84425522     -1.17691812
