72
CCCCCCCCCCCCCCCCCCN(CCO)CCO
C       6.56525936      3.22175478      2.78195458
C       6.67353393      2.19701873      1.66292869
C       6.02565889      2.70725972      0.37508707
C       6.21236148      1.76252693     -0.81567757
C       5.49597694      0.41980807     -0.64613845
C       5.61926391     -0.43301721     -1.91180494
C       5.02614291     -1.83727735     -1.76227031
C       3.50940299     -1.83772678     -1.55368523
C       2.95429893     -3.26489175     -1.53603696
C       1.42581918     -3.31894064     -1.44034457
C       0.88369825     -2.78404231     -0.11232707
C      -0.62089483     -3.01433705      0.06338931
C      -1.47323270     -2.23421086     -0.94116477
C      -2.96549763     -2.39405546     -0.64050615
C      -3.86968877     -1.70819964     -1.66941121
C      -3.68039495     -0.19469118     -1.81852714
C      -3.80133954      0.62402476     -0.52726991
C      -5.18479749      0.50539943      0.13205919
N      -5.40284037      1.30572583      1.35493256
C      -5.33291267      2.76830575      1.12342266
C      -6.34776889      3.31481864      0.10151414
O      -5.86082670      3.18711378     -1.23090883
C      -4.47779599      0.88661543      2.43621454
C      -5.01640666      1.26710344      3.82459539
O      -6.37799238      0.85625219      3.94239740
H       5.51829637      3.45176668      3.00378892
H       7.02923754      2.83559482      3.69491025
H       7.07221789      4.15348307      2.51158616
H       6.19181133      1.26969039      1.99032989
H       7.73105218      1.97046894      1.48454640
H       4.95575185      2.88186048      0.54213596
H       6.46559217      3.67753488      0.11263281
H       5.82640400      2.26336658     -1.71247682
H       7.28269206      1.59321256     -0.98519020
H       4.44041957      0.60377578     -0.41831378
H       5.92357862     -0.13017384      0.19912302
H       5.13785598      0.08085548     -2.75279036
H       6.68024958     -0.53679679     -2.17138600
H       5.51432568     -2.35677731     -0.92865035
H       5.26403452     -2.40525503     -2.67035441
H       3.27033435     -1.34064565     -0.60832307
H       3.02807740     -1.26639450     -2.35638214
H       3.25630597     -3.77822836     -2.45756060
H       3.39675584     -3.82524545     -0.70342206
H       1.11143711     -4.36307559     -1.56064105
H       0.99605943     -2.75899599     -2.27857128
H       1.40506572     -3.28199856      0.71446089
H       1.09330960     -1.71230929     -0.02122901
H      -0.89667097     -2.70859461      1.08045674
H      -0.84125654     -4.08592471     -0.01467778
H      -1.19311205     -1.17585524     -0.90185574
H      -1.27336004     -2.58853447     -1.95838134
H      -3.18603216     -2.01665808      0.36461118
H      -3.21457486     -3.46272440     -0.62828218
H      -4.91439979     -1.91964133     -1.41232243
H      -3.70438462     -2.17238747     -2.65010241
H      -2.69831403      0.00324996     -2.26458726
H      -4.41727716      0.17515115     -2.54284817
H      -3.01516177      0.32062755      0.17203357
H      -3.59707860      1.66930151     -0.78423924
H      -5.36984682     -0.54389410      0.39423662
H      -5.96583556      0.73651910     -0.60131103
H      -5.56550906      3.26963249      2.06933992
H      -4.31804222      3.06959111      0.83849437
H      -6.51019375      4.38188025      0.28784249
H      -7.31237031      2.80289859      0.18621359
H      -6.56796206      3.50173153     -1.81950336
H      -4.40071917     -0.20847158      2.42571847
H      -3.46729236      1.28797037      2.29650273
H      -4.43851250      0.76975470      4.60960670
H      -4.96663645      2.34555803      3.99926257
H      -6.73534905      0.93014460      3.03314640
