20
N#Cc1c(N)nc2ncncc2c1N
N       3.60513521      1.89055386     -0.03074474
C       2.65306791      1.22679044      0.01088367
C       1.45300769      0.44864395      0.05011861
C       1.52181632     -0.93796261      0.14129095
N       2.72633420     -1.63138966      0.25192446
N       0.42840633     -1.71870841      0.18205486
C      -0.78422573     -1.17887956      0.08683540
N      -1.81135253     -2.01973182      0.08181022
C      -3.03786365     -1.50498880     -0.04227425
N      -3.33207973     -0.21004801     -0.16785611
C      -2.27313510      0.61775434     -0.15707903
C      -0.94988165      0.20402301     -0.01646062
C       0.18815542      1.05653791      0.02346451
N       0.04981769      2.45168641     -0.17127165
H       3.39532451     -1.40954212     -0.47852282
H       2.51012673     -2.62721140      0.27177810
H      -3.86708103     -2.20432506     -0.04371985
H      -2.53472851      1.66471608     -0.27596081
H       0.86003776      3.01675964      0.08388505
H      -0.80088184      2.86532181      0.19984404
