27
O=S(=O)(Nc1ccc(Br)cc1Br)c1ccccc1
O      -1.49865942     -3.07862341     -1.16659998
S      -0.81421501     -1.81789455     -1.36195845
O      -0.68054192     -1.23459882     -2.67972043
N       0.72161519     -2.00597375     -0.67487785
C       1.53498465     -0.84771072     -0.46748894
C       1.99226625     -0.11598196     -1.56617800
C       2.75918005      1.03573955     -1.37509410
C       3.07234852      1.45262169     -0.08248795
Br      4.10589670      3.01443068      0.17222093
C       2.63374133      0.72716950      1.02360406
C       1.86771263     -0.42429107      0.82876723
Br      1.29838160     -1.39168368      2.36083277
C      -1.58860036     -0.61691764     -0.30299750
C      -1.57003741      0.73596023     -0.65647903
C      -2.18081107      1.67106086      0.17840320
C      -2.81679824      1.25270409      1.34855978
C      -2.85225819     -0.10164962      1.68541635
C      -2.24330654     -1.04355132      0.85657607
H       0.69588913     -2.68169158      0.09021933
H       1.76324891     -0.43817133     -2.58012558
H       3.10649535      1.59564473     -2.24039917
H       2.88682392      1.05629657      2.02807002
H      -1.08519063      1.06712546     -1.57212304
H      -2.16771935      2.72609455     -0.08503834
H      -3.29577169      1.98418038      1.99559013
H      -3.36046379     -0.42216831      2.59191293
H      -2.28421063     -2.09812053      1.11954921
