19
C/C=C/C(O)CC
C      -3.26914616      0.28768760      0.22535475
C      -1.88116148      0.20863754      0.77342793
C      -0.83661135     -0.29422285      0.09608277
C       0.56155544     -0.37980639      0.63572180
O       0.92894142     -1.75431793      0.64139649
C       1.54540895      0.40597039     -0.23492249
C       2.96144286      0.37333515      0.32616362
H      -3.60260231      1.32969033      0.20508520
H      -3.33662987     -0.11235010     -0.79124309
H      -3.95374795     -0.28080800      0.86214435
H      -1.74119314      0.59184126      1.78206623
H      -0.98139048     -0.67611739     -0.91304554
H       0.60839640     -0.01672539      1.66911593
H       0.22921157     -2.22710366      1.12381289
H       1.57226057     -0.01489119     -1.24807579
H       1.22135731      1.45022601     -0.32025197
H       3.35071807     -0.64874251      0.36670840
H       3.63136345      0.96343913     -0.30726333
H       2.99182669      0.79425802      1.33619287
