12
Clc1ccc(Br)cc1
Cl     -3.12313249      0.06786602      0.06096568
C      -1.40359828      0.03050033      0.02739904
C      -0.73830686     -1.19495535     -0.00923270
C       0.65801244     -1.22603507     -0.03650433
C       1.37604704     -0.02990166     -0.02686129
Br      3.26544948     -0.07095856     -0.06374251
C       0.71155276      1.19627426      0.00976930
C      -0.68479914      1.22587960      0.03701224
H      -1.29897428     -2.12601323     -0.01670479
H       1.17310947     -2.18279564     -0.06502167
H       1.26842951      2.12974074      0.01736129
H      -1.20378965      2.18039856      0.06555974
