12
NC(=O)NCO
N       2.05877425     -0.14682142     -0.51197895
C       0.91351760     -0.58088071      0.07180775
O       0.86350559     -1.62578903      0.70063658
N      -0.12328577      0.28002148     -0.12857724
C      -1.42802181     -0.12421861      0.27637146
O      -2.23449300      1.01953348      0.13963372
H       2.86300113     -0.71055556     -0.26324341
H       2.22441960      0.84878243     -0.47528005
H      -0.09198339      0.75075420     -1.01979075
H      -1.79034801     -0.91806980     -0.38306048
H      -1.43048588     -0.47253052      1.31384568
H      -1.82460031      1.67977406      0.72252003
