35
CC(C)(C)NCC(O)c1cc(O)cc(O)c1
C      -3.19188509      1.30422670      0.13342055
C      -2.94054887     -0.20825706      0.01978165
C      -4.11884573     -0.84337465     -0.74448252
C      -2.88054691     -0.83868371      1.42071690
N      -1.72953184     -0.51286873     -0.76969718
C      -0.46393638      0.02845674     -0.23108866
C       0.72055510     -0.48728079     -1.08798122
O       0.63588806     -1.91620572     -1.16878788
C       2.05571241     -0.05702257     -0.52282593
C       2.83399895     -0.91441156      0.27111210
C       4.04957956     -0.47417331      0.79242720
O       4.82560031     -1.29230285      1.56103671
C       4.51190180      0.81303798      0.54805168
C       3.74225288      1.66418222     -0.23498182
O       4.14563394      2.93863548     -0.50728878
C       2.52708238      1.24314106     -0.76864663
H      -3.20188029      1.78217626     -0.85296626
H      -2.42884974      1.80126832      0.74190072
H      -4.16077607      1.50512862      0.60545252
H      -4.22193351     -0.41856403     -1.75023267
H      -5.06679737     -0.67598596     -0.21985153
H      -3.98889984     -1.92708828     -0.85100111
H      -3.84462541     -0.74284897      1.93406066
H      -2.64290747     -1.90743852      1.36645075
H      -2.13138065     -0.35736422      2.05796688
H      -1.85698949     -0.14956636     -1.71718304
H      -0.47015359      1.12349314     -0.22978430
H      -0.32001965     -0.31975583      0.79722316
H       0.63035927     -0.11502433     -2.11610985
H      -0.32674479     -2.09694148     -1.16011315
H       2.48141182     -1.92312112      0.47072244
H       4.40208516     -2.16666715      1.59640287
H       5.46044740      1.12704419      0.96912384
H       5.01289443      3.07870783     -0.09146232
H       1.95184921      1.93544868     -1.37871986
