33
CC(C)CCCCCCCO
C      -4.33538835      0.44740889     -0.09060199
C      -3.29029927     -0.25733940      0.77565870
C      -3.76425224     -1.67675415      1.09956005
C      -1.90414151     -0.31119090      0.10414839
C      -1.27484386      1.07016813     -0.10604139
C       0.11027537      1.01391039     -0.75975671
C       1.18351008      0.38892015      0.13451245
C       2.56517647      0.47188181     -0.51870744
C       3.63825500     -0.15443698      0.36929219
C       5.01632703     -0.07503586     -0.27431853
O       5.98611511     -0.65140997      0.59019028
H      -5.32391636      0.40133786      0.37928995
H      -4.41009251     -0.01720385     -1.07956574
H      -4.09355749      1.50550107     -0.22723223
H      -3.20187409      0.29086008      1.72218034
H      -3.05106830     -2.18525796      1.75697213
H      -4.73198261     -1.65700683      1.61200753
H      -3.87437044     -2.27642682      0.18953579
H      -1.97968554     -0.82793949     -0.86099404
H      -1.24202213     -0.91593405      0.73442934
H      -1.20793512      1.59806997      0.85276620
H      -1.91993895      1.67146737     -0.75612971
H       0.04872401      0.46366344     -1.70654048
H       0.40932589      2.03953940     -1.01001161
H       1.20352955      0.90583257      1.10146761
H       0.94501749     -0.66191707      0.33168579
H       2.81732498      1.52132186     -0.71380147
H       2.54448026     -0.04153038     -1.48772589
H       3.66450915      0.34636908      1.34510330
H       3.39300579     -1.20343327      0.57707169
H       5.30259354      0.96563934     -0.45536089
H       5.04181865     -0.60920579     -1.22957050
H       5.73538041     -1.57986864      0.73395155
