31
CC(C)COC(=O)c1cc(N)c(Cl)c(N)c1
C       4.73776258     -0.37876517      0.53910815
C       3.33519305      0.19291960      0.34430737
C       3.29502276      1.09595115     -0.89053015
C       2.30507474     -0.93882842      0.24217863
O       0.99004121     -0.36822735      0.17924267
C      -0.00918054     -1.27691665      0.06425108
O       0.12813207     -2.48905450      0.02263270
C      -1.33085736     -0.59703222      0.00000368
C      -1.45397349      0.79870049     -0.04451464
C      -2.71514131      1.40428218     -0.05709275
N      -2.79457304      2.80318675     -0.20599354
C      -3.85816684      0.58032033     -0.13103287
Cl     -5.43323359      1.31576794     -0.21195298
C      -3.75186505     -0.82587145     -0.14062448
N      -4.88305448     -1.66028959     -0.05359670
C      -2.48142255     -1.39778867     -0.02302563
H       5.03460920     -1.00286147     -0.31070135
H       4.78474721     -0.99362124      1.44408710
H       5.47460106      0.42469863      0.64310037
H       3.08468150      0.81465872      1.21335430
H       3.51164295      0.52987098     -1.80287249
H       2.31207568      1.56384662     -1.00725742
H       4.03505827      1.89907501     -0.80726274
H       2.48756367     -1.54141140     -0.65622013
H       2.37083457     -1.58258861      1.12767513
H      -0.56576928      1.42550881     -0.06269959
H      -2.03632971      3.31813795      0.23026109
H      -3.71257544      3.17057221      0.04074774
H      -4.74915563     -2.59261759     -0.43302480
H      -5.72977658     -1.21150074     -0.39928234
H      -2.38196563     -2.48012227      0.04085540
