70
CCC(CC)c1cccc(OC(=O)NC)c1.CCCC(C)c1cccc(OC(=O)NC)c1
C      -3.33465037     -0.69334724     -1.71064943
C      -2.48819132      0.55302532     -1.48722280
C      -1.83273172      0.67166256     -0.09244937
C      -2.83064143      0.63476436      1.08698832
C      -3.83619394      1.77867576      1.06015703
C      -0.68217784     -0.31831106      0.06009526
C      -0.85279169     -1.60364059      0.60127644
C       0.22543112     -2.48905547      0.71241064
C       1.49283981     -2.10626687      0.28382423
C       1.66901887     -0.83125478     -0.24396279
O       2.91940374     -0.44799193     -0.73505713
C       3.80306109     -0.03585334      0.24862116
O       3.57892337      0.02894889      1.44929446
N       4.99044966      0.31042038     -0.33666191
C       6.06236682      0.90607327      0.41244062
C       0.59972256      0.05425638     -0.37680078
C      -3.96252665     -2.18099463      0.28229568
C      -3.28095090     -0.83763382      0.07240688
C      -2.32859204     -0.87631891     -1.12740424
C      -1.67412998      0.49057540     -1.42099339
C      -0.88995805      0.43400986     -2.73789276
C      -0.78231533      0.97872685     -0.29120577
C      -1.07199702      2.19411455      0.35198446
C      -0.26952597      2.66397227      1.39635017
C       0.83904396      1.93019453      1.80975837
C       1.14088789      0.73662616      1.16155204
O       2.22837144     -0.00861315      1.63035141
C       3.29677347     -0.09638244      0.75200667
O       3.37860850      0.42934619     -0.34959066
N       4.27630252     -0.86565575      1.31854032
C       5.56556454     -1.02958988      0.70587316
C       0.33581019      0.24559710      0.13260450
H      -4.17539081     -0.74182670     -1.01289173
H      -3.75053938     -0.68144798     -2.72383061
H      -2.74312323     -1.60730451     -1.60934517
H      -1.71108887      0.58649194     -2.26183262
H      -3.12035734      1.43177918     -1.66332308
H      -1.37473642      1.67177708     -0.05543431
H      -2.27260346      0.69638003      2.03073834
H      -3.38050537     -0.31213604      1.11761095
H      -4.50879997      1.70194659      0.20095730
H      -4.45203367      1.75671391      1.96510256
H      -3.32946306      2.74794345      1.02016211
H      -1.82992358     -1.94074104      0.93767250
H       0.07235205     -3.47929535      1.13342855
H       2.33001569     -2.79177936      0.36578115
H       5.00012736      0.33177805     -1.34676584
H       6.99277816      0.76997400     -0.14327480
H       5.85506544      1.97295856      0.53004694
H       6.14416456      0.44110512      1.39859499
H       0.77022318      1.03357746     -0.81570118
H      -4.63904063     -2.13219246      1.14139107
H      -4.54991659     -2.46462923     -0.59686258
H      -3.22607411     -2.96806127      0.47360770
H      -2.73628410     -0.57478496      0.98576885
H      -4.04570114     -0.06834605     -0.08516507
H      -2.89661554     -1.19197742     -2.01240735
H      -1.56331707     -1.64470261     -0.96096604
H      -2.48359667      1.21872169     -1.56767688
H      -1.55337966      0.17621177     -3.57053916
H      -0.43206776      1.40348014     -2.96423372
H      -0.09030427     -0.31405138     -2.70577123
H      -1.93161085      2.78604476      0.04442369
H      -0.51257318      3.60320164      1.88579719
H       1.46081578      2.28876411      2.62369197
H       4.13197344     -1.13175819      2.28277079
H       6.18413762     -0.16540879      0.96100152
H       5.46846109     -1.09926238     -0.38070747
H       6.02349678     -1.93997594      1.09897845
H       0.59023030     -0.69877410     -0.33973855
