20
O=S(=O)([O-])c1cccc(S(=O)(=O)[O-])c1.[Na+].[Na+]
O       2.86470784     -1.85317660     -0.38727435
S       2.92422182     -0.47935415      0.10136110
O       3.57825430      0.46497432     -0.80538902
O       3.29079391     -0.33035101      1.50864722
C       1.19956332      0.08610087      0.08799720
C       0.97088793      1.46262339      0.24500119
C      -0.33154081      1.96073861      0.23079874
C      -1.40147429      1.08387638      0.05474300
C      -1.16505266     -0.29018539     -0.11203562
S      -2.61218011     -1.36607143     -0.31858315
O      -3.50201542     -0.91563730      0.75240293
O      -2.09157613     -2.71906369     -0.15098538
O      -3.06078048     -1.03026089     -1.66877602
C       0.13630532     -0.80610378     -0.09489849
Na      0.00000000      0.00000000      0.00000000
Na      0.00000000      0.00000000      0.00000000
H       1.81959260      2.12857183      0.37808805
H      -0.51113051      3.02283047      0.35582528
H      -2.42474693      1.45031688      0.04318887
H       0.31617029     -1.86982852     -0.22011154
