46
CCCCCCCCC(CC)(CC)C(=O)NO
C       5.43274361      1.06150450     -1.02535520
C       4.97248600     -0.11086224     -1.87729965
C       4.61173195     -1.35540661     -1.06266851
C       3.49056312     -1.17587085     -0.03451145
C       2.15800151     -0.75147767     -0.65483241
C       1.04864877     -0.69926913      0.39820611
C      -0.28519335     -0.26883537     -0.21915640
C      -1.39506744     -0.22210577      0.84225351
C      -2.77659164      0.27062018      0.32415975
C      -3.85395395      0.21721263      1.45367396
C      -3.52093775      0.87940328      2.78687760
C      -3.28505631     -0.61183530     -0.86840501
C      -3.33966888     -2.11817472     -0.63308535
C      -2.68601689      1.72420311     -0.21273239
O      -3.14247885      2.07447878     -1.30371700
N      -2.09789700      2.65698500      0.60906543
O      -1.94602635      3.94486038      0.03805523
H       5.77234314      1.88118279     -1.66669277
H       6.26501745      0.77268473     -0.37580981
H       4.62142681      1.44550275     -0.40001762
H       4.12483743      0.19817046     -2.49853002
H       5.78065182     -0.37619704     -2.56977947
H       5.50873641     -1.70646420     -0.53721161
H       4.33059310     -2.15577843     -1.75847485
H       3.79342586     -0.45044368      0.72930595
H       3.35413988     -2.13171303      0.48705785
H       1.87964326     -1.45709113     -1.44680460
H       2.25722963      0.23643003     -1.11833045
H       0.93582177     -1.68623042      0.86309049
H       1.33025727      0.00308989      1.19218008
H      -0.16566689      0.71716440     -0.68218797
H      -0.54802660     -0.97211802     -1.01610713
H      -1.04354341      0.41610665      1.66037221
H      -1.50704620     -1.22033456      1.28440753
H      -4.08796941     -0.82811605      1.68356533
H      -4.78506441      0.66487723      1.08133439
H      -3.39198518      1.95937812      2.69175240
H      -2.62454792      0.45168714      3.24342280
H      -4.34711638      0.71919479      3.48868196
H      -4.29315015     -0.28157737     -1.15511292
H      -2.66076491     -0.43346145     -1.75375681
H      -3.70757278     -2.61648216     -1.53660487
H      -4.01903844     -2.38253231      0.18086844
H      -2.35321697     -2.53441320     -0.41301826
H      -1.42404114      2.41652105      1.32588418
H      -2.38065959      3.83553282     -0.83773160
