26
CCCC1CCCNC1
C       3.71107400      0.09681813     -0.09842531
C       2.30684511      0.30021467      0.45050662
C       1.26818398     -0.45516306     -0.38178547
C      -0.15559010     -0.38594811      0.20330138
C      -0.70633924      1.04845764      0.23804554
C      -2.16796118      1.06390249      0.68049677
C      -3.01099072      0.10062858     -0.14964893
N      -2.47281385     -1.25942501     -0.10639763
C      -1.09765572     -1.29303014     -0.61063735
H       4.43780385      0.64803093      0.50654543
H       3.78469472      0.45641066     -1.12974594
H       3.98965754     -0.96169828     -0.08225619
H       2.08657568      1.37285908      0.45378015
H       2.27446401     -0.04484021      1.49026414
H       1.57041196     -1.50828783     -0.44955327
H       1.26789175     -0.06277999     -1.40675508
H      -0.12155338     -0.76627817      1.23393850
H      -0.12346482      1.67154137      0.92478971
H      -0.62524626      1.50290160     -0.75751117
H      -2.23012555      0.78846777      1.74097870
H      -2.56956108      2.07957098      0.59083008
H      -4.03614416      0.08778279      0.23646518
H      -3.07218841      0.44464672     -1.18924756
H      -2.47772889     -1.58656594      0.85999899
H      -0.74193372     -2.32896965     -0.56451859
H      -1.08830551     -1.00924700     -1.67070639
