52
CCCCCCCOC(=O)C(C)c1ccc2cc(OC)ccc2c1
C      -7.27460626     -1.02000179      3.40212336
C      -6.13181410     -0.39365004      2.61682829
C      -5.98598922     -1.04284329      1.23941860
C      -4.90943951     -0.39167578      0.36613687
C      -3.49771550     -0.52047763      0.94422739
C      -2.40096811     -0.14021752     -0.05250641
C      -2.46376618      1.31437381     -0.51112026
O      -1.37213563      1.57774011     -1.40844608
C      -0.23002532      2.06115951     -0.83779661
O      -0.08732905      2.29600899      0.35679624
C       0.83996221      2.27107119     -1.90188380
C       1.35992712      3.70871039     -1.83233109
C       1.96251655      1.25194200     -1.79776009
C       2.24192456      0.40602884     -2.87883392
C       3.27888088     -0.52865677     -2.80286132
C       4.06099923     -0.64297907     -1.64306142
C       5.10819584     -1.57569292     -1.54898700
C       5.87973479     -1.68771609     -0.38780025
O       6.86323287     -2.63692220     -0.44398032
C       7.62474786     -2.84393596      0.73975770
C       5.60585504     -0.85558646      0.69528535
C       4.56827578      0.08010790      0.61657322
C       3.78889090      0.19867007     -0.54481670
C       2.74584948      1.13687251     -0.63632944
H      -8.22436372     -0.91118667      2.86937559
H      -7.09597548     -2.08746757      3.56886570
H      -7.37452251     -0.53569337      4.37845639
H      -6.31796364      0.68149380      2.50461749
H      -5.20669945     -0.50714577      3.19298818
H      -6.94322276     -0.97273742      0.70728573
H      -5.76817220     -2.11228625      1.35448053
H      -4.94121187     -0.86599625     -0.62275103
H      -5.15759537      0.66667770      0.21954523
H      -3.32761594     -1.55647698      1.26108765
H      -3.40156253      0.10648693      1.83765594
H      -1.42200269     -0.33358504      0.40649698
H      -2.44637979     -0.79960252     -0.92932538
H      -3.38207421      1.50159813     -1.07822227
H      -2.46405031      2.00865143      0.33797807
H       0.35512775      2.16202132     -2.88255877
H       1.82945166      3.93215504     -0.86697299
H       2.10137524      3.89581073     -2.61681429
H       0.53778485      4.42155115     -1.96544897
H       1.65764901      0.46523620     -3.79547625
H       3.47315060     -1.17011777     -3.66030072
H       5.33162877     -2.23039452     -2.38887843
H       8.19075663     -1.94611209      1.00935687
H       8.34564275     -3.64192503      0.53759233
H       6.98599186     -3.17352720      1.56576729
H       6.17865367     -0.90289953      1.61535514
H       4.37175436      0.71975232      1.47497478
H       2.53924107      1.78395669      0.21623691
