20
O=C1Nc2cccc3cccc1c23
O      -1.71176698      3.17386545      0.06871034
C      -0.90900994      2.26338574      0.07350789
N       0.47348887      2.33827410      0.18699477
C       1.00682027      1.05321208      0.14661182
C       2.30978769      0.61859305      0.22120948
C       2.53273346     -0.76940094      0.14983478
C       1.46133745     -1.68534904      0.00693784
C       0.13108064     -1.21961226     -0.06781213
C      -1.06953500     -1.95034918     -0.20900628
C      -2.31613904     -1.27910616     -0.26401712
C      -2.39730022      0.12264886     -0.18061398
C      -1.21548536      0.82034211     -0.04301325
C      -0.01803927      0.15890122      0.00875987
H       0.98501357      3.20161658      0.28251126
H       3.13705856      1.31007300      0.33054202
H       3.55118209     -1.14987061      0.20554001
H       1.67041715     -2.75114507     -0.04488670
H      -1.04276123     -3.03540068     -0.27640255
H      -3.22948951     -1.86131455     -0.37311661
H      -3.34939320      0.64063629     -0.22229147
