26
O=S(=O)(O)c1ccc2c(S(=O)(=O)O)cccc2c1
O      -4.35687999     -1.50747666     -1.03535442
S      -3.96074160     -0.17130624     -0.64593665
O      -4.34685676      0.99773961     -1.40137516
O      -4.51828091      0.00021861      0.85892170
C      -2.20098018     -0.13905930     -0.46669224
C      -1.41571586     -1.08656094     -1.11164417
C      -0.02975899     -1.05615459     -0.93779302
C       0.60277479     -0.08515489     -0.11575722
C       2.00318331      0.01143394      0.11237463
S       3.11623061     -1.15367606     -0.63184142
O       2.79576065     -2.46930389     -0.12140954
O       3.16847598     -0.87650020     -2.04930700
O       4.57888376     -0.82692960     -0.03199747
C       2.54956835      1.01197374      0.92923964
C       1.71339181      1.93516163      1.54384792
C       0.33673243      1.86151559      1.34555208
C      -0.22848764      0.86994785      0.52779781
C      -1.61980701      0.83166657      0.35012925
H      -5.10098395     -0.76751980      1.04164913
H      -1.86244399     -1.84720851     -1.74882899
H       0.54946660     -1.81252347     -1.46587582
H       5.02901460     -1.68483670      0.12077526
H       3.62239270      1.08652008      1.09037478
H       2.13077477      2.71517746      2.17649828
H      -0.29781047      2.59781951      1.83733499
H      -2.25790301      1.56503628      0.84206998
