11
CCCBr
C      -1.33711086      0.16361576     -0.08054611
C       0.09731694      0.04051135     -0.56848479
C       1.05463117     -0.17706002      0.58955407
Br      2.87602210     -0.32874306     -0.08072583
H      -2.01344775      0.31989235     -0.92676605
H      -1.65252983     -0.74446416      0.44322407
H      -1.44734819      1.01120799      0.60346282
H       0.16446414     -0.79247771     -1.27867230
H       0.36800317      0.94914736     -1.11971598
H       0.84175746     -1.10423375      1.12870635
H       1.04824163      0.66260388      1.28996375
