8
CC(Cl)Cl
C      -0.80883704     -0.08758162     -0.06809876
C       0.67676208      0.08242847      0.19311664
Cl      1.27780406      1.55819317     -0.59701872
Cl      1.57447377     -1.33266504     -0.40276147
H      -1.02549202     -0.18172194     -1.13818816
H      -1.19289670     -0.98304931      0.43268762
H      -1.37279889      0.76998354      0.31488967
H       0.87098475      0.17441274      1.26537318
