31
CO[Si](OC)(C(C)C)C(C)C
C       0.91563354      2.11466966     -1.63378768
O       0.16470562      0.91562804     -1.53909947
Si     -0.05336840      0.19067013     -0.04731030
O      -0.77926772      1.28000786      0.99430794
C      -2.02735868      1.85715174      0.64828351
C       1.65608014     -0.41311538      0.71911072
C       2.53886801     -1.13081388     -0.30774136
C       2.43510500      0.71850399      1.39944323
C      -1.13793146     -1.43805545     -0.25979092
C      -1.67203867     -1.96607903      1.07615490
C      -2.28270535     -1.26297439     -1.26434741
H       0.77896045      2.51975490     -2.64140907
H       0.57555011      2.87299442     -0.91983478
H       1.98338569      1.91713475     -1.49821547
H      -2.83480797      1.12471690      0.74346482
H      -2.01944101      2.28552348     -0.36011936
H      -2.23118921      2.66857599      1.35405814
H       1.37565218     -1.13571697      1.49506994
H       2.01795805     -1.98233521     -0.75836345
H       2.84413753     -0.45934637     -1.11770264
H       3.44751992     -1.51524856      0.16837681
H       2.75022365      1.48551483      0.68509475
H       3.33566904      0.32580321      1.88434117
H       1.83268725      1.20819620      2.17244251
H      -0.44663179     -2.18336388     -0.67152601
H      -0.85946364     -2.15658449      1.78532733
H      -2.36379410     -1.25674814      1.54350858
H      -2.20898106     -2.90964986      0.92954681
H      -3.01823170     -0.52802096     -0.92267090
H      -1.90938992     -0.93415807     -2.24043555
H      -2.80753550     -2.21263546     -1.41617682
