47
C=C[C@H]1CN2CC[C@H]1C[C@H]2[C@@]12Nc3ccccc3[C@]1(O)CCO2
C       5.74246935     -0.32006610     -0.30461562
C       4.41698002     -0.48748738     -0.20955353
C       3.40934326      0.61748465     -0.42476751
C       2.38724644      0.26260254     -1.53702173
N       0.97961932      0.45329499     -1.08886748
C       0.83407904      1.86004477     -0.64316144
C       1.74384188      2.18788941      0.54927854
C       2.62977146      0.96964742      0.86614550
C       1.67200392     -0.17213748      1.25191049
C       0.73684020     -0.49574428      0.05718080
C      -0.75717861     -0.71384910      0.49308423
N      -1.31622457      0.46857972      1.18673643
C      -2.62587454      0.59750838      0.66878227
C      -3.57435832      1.49421373      1.12817055
C      -4.82100499      1.53199980      0.49757532
C      -5.09864732      0.68493666     -0.58556770
C      -4.13340450     -0.21025123     -1.04850377
C      -2.90308839     -0.24314575     -0.40760217
C      -1.71379032     -1.10448061     -0.69623084
O      -1.28872958     -0.85941888     -2.02853574
C      -1.93537670     -2.58468579     -0.47322311
C      -1.79933762     -2.73338252      1.02448333
O      -0.79707427     -1.80103920      1.44769554
H       6.18339067      0.64309745     -0.54255229
H       6.42027129     -1.15278080     -0.14162679
H       4.03572710     -1.47816512      0.03073343
H       3.94712330      1.52190053     -0.74421867
H       2.51612558     -0.76542006     -1.90019779
H       2.57007544      0.89684423     -2.41468293
H       1.07819287      2.52632960     -1.48121350
H      -0.20842830      2.09294586     -0.40945454
H       1.13714089      2.45081091      1.42409629
H       2.36729402      3.05911556      0.31588595
H       3.30948663      1.19853064      1.69460832
H       2.23778532     -1.06804443      1.53262910
H       1.10588646      0.12417820      2.14245048
H       1.04854337     -1.48836384     -0.30398386
H      -1.35432122      0.29624487      2.18820825
H      -3.35380035      2.16355172      1.95268702
H      -5.57819328      2.23211925      0.84165877
H      -6.06886917      0.73401498     -1.07390902
H      -4.33458587     -0.85607941     -1.89761885
H      -0.57908334     -0.18100741     -1.97268080
H      -2.89130543     -2.96319826     -0.84806671
H      -1.14210574     -3.15436683     -0.97365230
H      -2.73420023     -2.49061204      1.54161255
H      -1.50025519     -3.74415937      1.31589554
