15
S=c1[nH]c2ccccc2s1
S       4.30430448      0.29216902     -0.16316433
C       2.65161079      0.40041980     -0.13349182
N       1.81769105     -0.68145234      0.05149633
C       0.45296383     -0.39087618      0.04590274
C      -0.55936436     -1.31837741      0.21274921
C      -1.87832053     -0.85745394      0.18040090
C      -2.15694714      0.50605409     -0.01584232
C      -1.12009779      1.42901859     -0.18269011
C       0.18188196      0.96263899     -0.14905540
S       1.69179777      1.87339858     -0.32720703
H       2.18604140     -1.61321809      0.18066212
H      -0.34757041     -2.37093650      0.36433137
H      -2.69959344     -1.55967236      0.30824257
H      -3.19024843      0.84628038     -0.03806159
H      -1.33414918      2.48200736     -0.33427263
