46
O=S(=O)(NCC(c1ccccc1)N1CCOCC1)c1ccc(Cl)cc1
O       2.35664982      0.58509501      2.71930027
S       2.49498239     -0.62681517      1.94303312
O       2.69894876     -1.91427561      2.56826855
N       1.15469660     -0.77921603      0.95881629
C       0.46021636      0.44184153      0.50280640
C      -0.77592955      0.03689736     -0.36024394
C      -1.52221285      1.24500267     -0.91752417
C      -1.86054981      2.35520965     -0.12667903
C      -2.53876691      3.44629648     -0.67592632
C      -2.88969131      3.44644385     -2.02315229
C      -2.56483399      2.35517666     -2.82344129
C      -1.88728628      1.26401820     -2.27577339
N      -1.60763455     -0.99180507      0.32654819
C      -2.55745430     -1.66326679     -0.58402654
C      -3.30162188     -2.79850939      0.13881030
O      -4.00187820     -2.31058104      1.29012864
C      -3.08658540     -1.68150635      2.19616374
C      -2.33993698     -0.51911632      1.51743536
C       3.79186233     -0.40038565      0.75158835
C       4.35198072      0.86676865      0.56102297
C       5.38006211      1.02945962     -0.37021302
C       5.84285114     -0.07090408     -1.09413145
Cl      7.10829347      0.13513963     -2.24144363
C       5.29020183     -1.33693775     -0.89423628
C       4.26196547     -1.50636381      0.03504568
H       0.54062414     -1.56006679      1.20511148
H       0.14753997      1.02032116      1.37763459
H       1.14593931      1.05635716     -0.09113167
H      -0.32609668     -0.47924819     -1.22241994
H      -1.61242020      2.38633371      0.93138377
H      -2.79651834      4.29644655     -0.04900619
H      -3.41874650      4.29547101     -2.44807477
H      -2.84005255      2.35207046     -3.87507947
H      -1.64594725      0.42209811     -2.92181440
H      -2.02461619     -2.08838828     -1.44203583
H      -3.29834035     -0.94730145     -0.95975780
H      -4.04150387     -3.24346972     -0.53419055
H      -2.61107363     -3.59323969      0.44618674
H      -2.38594452     -2.43199972      2.58198056
H      -3.66791905     -1.30319660      3.04310993
H      -1.65445207     -0.08158989      2.24981769
H      -3.07802753      0.24116018      1.23743684
H       3.99894682      1.72444802      1.12955890
H       5.81842064      2.01246420     -0.52389504
H       5.65783009     -2.19291065     -1.45457706
H       3.83402880     -2.49342584      0.19758572
