32
C(CCOCC1CO1)COCC1CO1
C      -0.47574680     -0.53852763     -0.31843133
C       0.30001304      0.54835442      0.43482670
C       1.74749477      0.14256375      0.69627669
O       2.42119245     -0.01619037     -0.55306204
C       3.77313839     -0.45107239     -0.39499836
C       4.65580309      0.69317159     -0.02351997
C       6.05229342      0.45654145      0.48787001
O       4.97230982      0.79300989      1.37106268
C      -1.92241021     -0.13162571     -0.58091725
O      -2.60195969      0.01374866      0.66461770
C      -3.96276633      0.42114788      0.51083758
C      -4.83323894     -0.76892981      0.28575931
C      -5.32385311     -1.15077547     -1.08642109
O      -6.16244149     -0.45413999     -0.15448638
H       0.01083484     -0.75218713     -1.27674187
H      -0.46103935     -1.46030770      0.27574559
H       0.28502645      1.46990724     -0.15974840
H      -0.18644880      0.76258843      1.39307512
H       2.23748078      0.92685580      1.28266010
H       1.78070505     -0.79620003      1.26104342
H       4.09573592     -0.83500441     -1.36841221
H       3.83062100     -1.28305337      0.31713296
H       4.45184832      1.59828857     -0.57889732
H       6.80121734      1.21710787      0.30571353
H       6.43437359     -0.55559256      0.52826848
H      -1.95495200      0.81251155     -1.13668355
H      -2.41065091     -0.90971788     -1.17693139
H      -4.25977474      0.89555317      1.45204874
H      -4.05892268      1.17632974     -0.27841665
H      -4.72152871     -1.53111942      1.04456143
H      -5.54739218     -2.19292252     -1.27717224
H      -4.96696233     -0.59921400     -1.94666001
