54
N#CCCN(CCOC(=O)c1ccccc1)c1ccc(N=Nc2ccc([N+](=O)[O-])cc2)cc1
N      -2.18074696      6.75779004      0.83335334
C      -1.82547858      5.65483693      0.87645388
C      -1.39000023      4.25560025      0.92548944
C      -1.76138187      3.53540471     -0.37043097
N      -1.45286666      2.09644802     -0.29098516
C      -2.57917972      1.21118515      0.06298148
C      -3.04590759      0.38069186     -1.14256132
O      -4.28457205     -0.30121388     -0.87488354
C      -4.18637697     -1.38609674     -0.06622825
O      -3.16199555     -1.78260266      0.46316930
C      -5.51536285     -2.02883819      0.12471128
C      -5.58824068     -3.17128865      0.93514302
C      -6.81512187     -3.80045003      1.15611074
C      -7.97514655     -3.29141641      0.57199895
C      -7.91115988     -2.15616279     -0.23623133
C      -6.68518747     -1.52417176     -0.46184379
C      -0.15469823      1.60951967     -0.39625487
C       0.91028022      2.40681699     -0.85678123
C       2.22369705      1.92013108     -0.95915089
C       2.53505832      0.60911166     -0.60548453
N       3.86125578      0.16029833     -0.76468822
N       4.23579745     -0.53393701      0.20565361
C       5.58633225     -0.91984805      0.09229869
C       6.34700308     -0.99714233      1.26812248
C       7.70119433     -1.35261111      1.23442195
C       8.30125285     -1.65005660      0.00528956
N       9.72359935     -2.01089086     -0.04530652
O      10.23777335     -2.17322080     -1.16190761
O      10.32726589     -2.12900226      1.03004047
C       7.55313807     -1.60869288     -1.17798917
C       6.19997525     -1.25219344     -1.12750347
C       1.49375837     -0.20990977     -0.17192775
C       0.18219149      0.28349543     -0.06747383
H      -1.86200966      3.75368265      1.77880732
H      -0.30910876      4.21532941      1.09637143
H      -2.83651255      3.66431687     -0.55448474
H      -1.28655904      3.99988497     -1.24200084
H      -2.33656559      0.58672959      0.93106407
H      -3.43351016      1.80640027      0.41372310
H      -3.23539724      1.04401468     -1.99347231
H      -2.28821727     -0.33798875     -1.47530562
H      -4.68969675     -3.57643423      1.39731954
H      -6.86518579     -4.68340030      1.78945162
H      -8.93162587     -3.77971793      0.74825409
H      -8.81911833     -1.75989851     -0.68971265
H      -6.66031079     -0.63967919     -1.09391118
H       0.75346070      3.43665650     -1.16477198
H       3.00705880      2.57491968     -1.33457290
H       5.87497072     -0.77109997      2.22244370
H       8.26284653     -1.39367759      2.16598873
H       8.00370770     -1.84479536     -2.14132641
H       5.62129863     -1.22613261     -2.04930070
H       1.69043825     -1.24781870      0.08378714
H      -0.56611293     -0.42287537      0.28159345
