37
CC[N+](CC)(CC)Cc1ccccc1.[Cl-]
C      -1.39999896     -2.32657477      0.59998063
C      -1.12400130     -0.87790557      0.97347565
N      -0.89255745      0.06517159     -0.23804179
C      -0.78412938      1.49822612      0.34960849
C      -0.69509305      2.60158519     -0.69393766
C      -2.04027247     -0.04187905     -1.27102093
C      -3.41174639      0.30142968     -0.71058118
C       0.42723772     -0.32112376     -0.99033199
C       1.72058081     -0.30100271     -0.20909162
C       2.51136662      0.85862354     -0.15322051
C       3.70433506      0.87734312      0.57256009
C       4.13196779     -0.26480293      1.24249541
C       3.37428273     -1.43012847      1.17839082
C       2.18099926     -1.45104535      0.45318826
Cl      0.00000000      0.00000000      0.00000000
H      -0.62430087     -2.76140430     -0.03264340
H      -2.36126504     -2.44084302      0.09126200
H      -1.45246195     -2.93090163      1.51217105
H      -0.24710921     -0.80140856      1.62351943
H      -1.97452167     -0.48018050      1.53837708
H       0.08455534      1.51734904      1.01471734
H      -1.66819838      1.66141492      0.97608646
H      -0.52399099      3.56020337     -0.19210977
H      -1.62532458      2.70431654     -1.25962403
H       0.12203259      2.45641209     -1.40261845
H      -1.79352582      0.62148082     -2.10680523
H      -2.03460482     -1.06402761     -1.66427087
H      -4.16156236      0.20066983     -1.50280609
H      -3.46683209      1.33062004     -0.34701467
H      -3.70994779     -0.36913854      0.09927114
H       0.50858797      0.35073965     -1.85292026
H       0.26963058     -1.31986891     -1.41429527
H       2.22552127      1.76340039     -0.68426972
H       4.31042662      1.78072789      0.60729024
H       5.06546172     -0.25155970      1.80149753
H       3.72277513     -2.32767279      1.68595694
H       1.63168337     -2.38824564      0.40575490
