29
Cc1cccc(Oc2cccc(C)c2)c1
C      -3.47829888      1.26132726     -0.78649076
C      -2.78881171      0.32593671      0.16180320
C      -3.34573677      0.04864957      1.41716202
C      -2.72805330     -0.85633309      2.28294049
C      -1.54895512     -1.49403386      1.90051089
C      -0.98304203     -1.21769609      0.65683476
O       0.15933418     -1.91014897      0.32352304
C       1.19016968     -1.19466423     -0.24307787
C       1.81851068     -1.76151689     -1.35088393
C       2.88520259     -1.09965050     -1.95691512
C       3.33496525      0.11832565     -1.44278630
C       2.73433632      0.67623714     -0.30660500
C       3.20497606      1.99387085      0.23372898
C       1.65352118      0.01266189      0.28902690
C      -1.61181067     -0.33019523     -0.22204220
H      -2.75218368      1.77184744     -1.42787834
H      -4.17909630      0.70560411     -1.41699470
H      -4.02930708      2.03470271     -0.24109078
H      -4.27021448      0.53207668      1.72573812
H      -3.17019329     -1.06887160      3.25270315
H      -1.07113409     -2.20413792      2.56941616
H       1.47108747     -2.71202268     -1.74561284
H       3.36749717     -1.53251223     -2.82933551
H       4.16456032      0.62633686     -1.92987203
H       4.27272719      2.13800087      0.03798995
H       3.06459531      2.04347812      1.31864330
H       2.64636605      2.81058922     -0.23363486
H       1.17746596      0.43452087      1.17066038
H      -1.18847800     -0.15238270     -1.20746110
