22
COC(=O)C(CO)NC(=O)C(Cl)Cl
C      -2.87001665      1.02031891     -2.34854784
O      -2.28810568      0.65786789     -1.09496467
C      -0.95554415      0.38934298     -1.15546224
O      -0.26914649      0.44168781     -2.17106776
C      -0.40684100      0.02094686      0.22012398
C      -0.89048834     -1.38082961      0.61321500
O      -0.94197873     -1.54004451      2.03178197
N       1.06081842      0.11472182      0.16809316
C       1.86965772      0.01674696      1.27885980
O       1.39675325     -0.22812248      2.39030240
C       3.37172673      0.19217341      1.05147578
Cl      3.95968471     -1.13450677      0.02903349
Cl      3.67412846      1.76249931      0.27862398
H      -2.77124565      0.20095926     -3.06740261
H      -2.40811264      1.93419550     -2.73496203
H      -3.93411012      1.21188331     -2.18527841
H      -0.73896126      0.77312771      0.94543250
H      -1.90225161     -1.57544506      0.24360410
H      -0.23575135     -2.15930757      0.20626831
H      -0.09930214     -1.19300757      2.39905951
H       1.47999204      0.30985008     -0.74108860
H       3.89909447      0.16494175      2.00889852
