39
c1cc(OCC2CO2)cc(N(CC2CO2)CC2CO2)c1
C       1.39721136     -2.08669806      1.06706954
C       2.20859024     -0.96432072      0.94392034
C       1.70805586      0.16893991      0.31728056
O       2.38413820      1.34237911      0.11618504
C       3.72085976      1.41583481      0.61077909
C       4.26044586      2.76766574      0.27587109
C       4.04883111      3.94226464      1.19232735
O       5.29849891      3.23501609      1.14641737
C       0.39195168      0.16323482     -0.17504723
C      -0.46672866     -0.94553324     -0.05755538
N      -1.76968629     -0.94364440     -0.55319847
C      -2.80275824     -1.81731567      0.02459930
C      -3.30594729     -1.25613475      1.31947787
C      -2.83799429     -1.77352710      2.65430725
O      -4.09727772     -2.17111676      2.09356243
C      -2.26633888      0.13678462     -1.42019767
C      -1.74286268     -0.03364850     -2.81341894
C      -2.38052575     -1.00128804     -3.77436854
O      -2.63036940      0.41066240     -3.84989850
C       0.08741477     -2.07284120      0.57068864
H       1.78229140     -2.98521977      1.54309388
H       3.21724783     -1.01321045      1.33838652
H       4.34693516      0.66007658      0.12236174
H       3.72990037      1.25925149      1.69649881
H       4.36339057      2.94029802     -0.78643080
H       3.42983617      3.81496308      2.07161743
H       4.01879518      4.93281302      0.75621694
H       0.05605824      1.08019408     -0.64910789
H      -3.65076103     -1.89145105     -0.66850595
H      -2.45660000     -2.85015026      0.13446014
H      -3.65653516     -0.23646926      1.24348942
H      -2.85404713     -1.09315140      3.49653242
H      -2.04968266     -2.51335262      2.68965058
H      -3.36414601      0.12682315     -1.44586148
H      -2.01290689      1.12627237     -1.02446503
H      -0.68972614      0.18509319     -2.91772205
H      -3.18124118     -1.63749475     -3.41985650
H      -1.75628095     -1.44239425     -4.54097066
H      -0.47803634     -2.99355068      0.67181132
