23
CC(=O)OCSc1ncnc2[nH]cnc12
C       4.83163991      0.53945343     -0.54346197
C       3.43392602      0.51977473     -0.00517122
O       3.13279264      0.80035538      1.14615287
O       2.56558775      0.14461418     -0.97879519
C       1.20074532      0.11002002     -0.54554451
S       0.14382855     -0.50642532     -1.89387398
C      -1.32100889     -0.88311919     -0.98381874
N      -1.91360599     -2.08903596     -1.18258255
C      -3.04612039     -2.36006403     -0.50264719
N      -3.69512942     -1.57304539      0.37792420
C      -3.06630360     -0.39855263      0.52425816
N      -3.44651480      0.63552761      1.32921358
C      -2.52591551      1.63535286      1.17624799
N      -1.58022457      1.30364416      0.32268657
C      -1.90476869      0.02883422     -0.09889594
H       5.11374459     -0.46162544     -0.87902380
H       4.90219417      1.25573798     -1.36587501
H       5.52040631      0.84908811      0.24779438
H       1.11043265     -0.55983261      0.31686760
H       0.89304805      1.12508293     -0.27849264
H      -3.48913814     -3.33458129     -0.68882321
H      -4.26247823      0.64394661      1.92271926
H      -2.59713773      2.57484967      1.70955449
