69
NC[C@H]1O[C@H](O[C@@H]2[C@@H](N)C[C@@H](N)[C@H](O[C@H]3O[C@H](CO)[C@@H](O)[C@H](N)[C@H]3O)[C@H]2O)[C@H](N)C[C@@H]1O
N      -6.92962781      0.92153573     -0.04060032
C      -5.97490413      0.47319084     -1.06533609
C      -4.74824480     -0.28006082     -0.50071651
O      -4.13115486      0.55887704      0.49406306
C      -2.92984573     -0.01320595      1.01137819
O      -1.98727244     -0.26244252     -0.03516538
C      -1.11882097      0.85456484     -0.28591487
C      -1.00677404      1.07186451     -1.81876486
N      -2.16629672      1.83436026     -2.32019054
C       0.32049467      1.74546332     -2.22313719
C       0.96455015      2.57079915     -1.10057999
N       0.10221225      3.71762617     -0.77001161
C       1.26431454      1.67247373      0.13590624
O       2.62118712      1.20715115     -0.02735677
C       3.13559062      0.45307436      1.07275114
O       2.93175064     -0.94366388      0.87792886
C       3.60462713     -1.47291839     -0.27957288
C       3.28351030     -2.97270022     -0.37016476
O       3.82808661     -3.68915172      0.74001267
C       5.12051108     -1.22577605     -0.22479693
O       5.75100850     -1.62207306     -1.44909733
C       5.41189151      0.26456267      0.01558400
N       6.87987433      0.48908693      0.11914051
C       4.64489002      0.75210601      1.25413366
O       4.91998781      2.14726670      1.46058680
C       0.26209115      0.50611246      0.28819397
O       0.13581161      0.15898403      1.68067656
C      -3.24972788     -1.34621538      1.74523015
N      -2.06234078     -1.95774002      2.37972515
C      -3.89651566     -2.32261477      0.75914477
C      -5.10438335     -1.66543563      0.08134515
O      -5.61053871     -2.54485896     -0.92136118
H      -7.35342663      0.10917200      0.40338665
H      -6.38690772      1.39028249      0.68838940
H      -5.62058723      1.37384710     -1.58014906
H      -6.49841588     -0.13869018     -1.80731878
H      -4.05803745     -0.41069841     -1.34434578
H      -2.52271889      0.68683439      1.75153747
H      -1.51176183      1.75484766      0.20475271
H      -1.05808684      0.09770573     -2.32186959
H      -2.18542838      2.74005838     -1.84528903
H      -2.04589950      2.03744532     -3.31058102
H       0.19465124      2.35902277     -3.12514030
H       1.02799679      0.95622636     -2.51405869
H       1.90940101      2.98012702     -1.48078926
H       0.56258833      4.28965354     -0.05952394
H       0.02468028      4.32287336     -1.58962817
H       1.26046747      2.29719129      1.03928260
H       2.63126115      0.75357310      1.99822843
H       3.18141692     -1.00240043     -1.17665732
H       3.68814546     -3.40554763     -1.29036231
H       2.19856924     -3.12187312     -0.35391840
H       3.54695373     -4.61449712      0.63885792
H       5.56886469     -1.81159916      0.58757834
H       6.62196613     -1.17176534     -1.42872775
H       5.10127239      0.84323189     -0.86423561
H       7.22258713      0.03484985      0.96731954
H       6.99626577      1.49043026      0.31189579
H       5.00878705      0.21341913      2.13849530
H       4.24377280      2.49135534      2.06897121
H       0.64456590     -0.39284496     -0.21091421
H      -0.37151746     -0.68274688      1.68500107
H      -3.98285226     -1.13602793      2.53519399
H      -2.31153802     -2.88047192      2.73824510
H      -1.80565910     -1.40585628      3.20097781
H      -4.21982151     -3.23859293      1.27025759
H      -3.17475557     -2.64887760     -0.00173858
H      -5.88734351     -1.55335638      0.84023596
H      -4.90539784     -2.68654325     -1.57816441
