44
CCCCNC(=S)N(CCCC)CCCC
C       5.11480953      1.68066010     -0.72422083
C       3.99258091      0.67271291     -0.92085256
C       3.21419012      0.94656992     -2.21019842
C       2.11524154     -0.08597032     -2.45697176
N       1.05623951      0.00281845     -1.45561163
C       0.02857359     -0.90761749     -1.27273713
S      -0.11023279     -2.30378642     -2.20210569
N      -0.85454307     -0.54922847     -0.23250498
C      -2.10675199     -1.29170939      0.01886719
C      -1.91894827     -2.43288772      1.02595073
C      -3.22706805     -3.14806989      1.37005052
C      -3.80002093     -3.95085983      0.21208052
C      -0.56205570      0.51733226      0.74312109
C      -1.21974214      1.84364608      0.34999841
C      -0.77583482      3.01683584      1.22602772
C      -1.19254947      2.87652281      2.68245232
H       5.82837771      1.63948828     -1.55379887
H       5.65812325      1.46798064      0.20231200
H       4.71936846      2.70026491     -0.66135884
H       4.41896067     -0.33671698     -0.94929580
H       3.32035111      0.71700264     -0.05623415
H       2.77748855      1.95323665     -2.16756281
H       3.90631830      0.93056086     -3.06100046
H       2.53890802     -1.09622177     -2.45815597
H       1.65473366      0.09420006     -3.43443059
H       0.80945702      0.94835853     -1.21100641
H      -2.85260171     -0.58070682      0.39483951
H      -2.50391375     -1.66909079     -0.92804069
H      -1.18766794     -3.15925849      0.65411230
H      -1.49699377     -2.03038911      1.95509367
H      -3.97099873     -2.42110291      1.71836829
H      -3.03987349     -3.83166655      2.20715225
H      -4.08511295     -3.30830658     -0.62528729
H      -3.07383618     -4.68635084     -0.14815516
H      -4.69472876     -4.49207854      0.53702953
H      -0.91855997      0.19008598      1.72541436
H       0.52169059      0.64314986      0.84285220
H      -2.31120561      1.74589657      0.39379250
H      -0.97960172      2.08291251     -0.69297434
H       0.31274220      3.13379932      1.16741747
H      -1.21647436      3.93677821      0.82357360
H      -0.92852995      3.78121073      3.23865626
H      -0.68663152      2.03462298      3.16355793
H      -2.27367709      2.72537184      2.76978401
