21
CCOC(=O)c1c[nH]c(=S)[nH]c1=O
C      -3.70407891      0.22618066     -0.70806945
C      -2.79826036     -0.31595761      0.38012350
O      -1.44201256     -0.04501520      0.00819133
C      -0.51491247     -0.44997300      0.90578388
O      -0.75462120     -1.04971176      1.94605744
C       0.85093590     -0.13115644      0.44729112
C       1.86128574     -0.84779969      0.96602107
N       3.16470966     -0.64153368      0.59123505
C       3.53160013      0.28787099     -0.33947399
S       5.11687891      0.50781377     -0.77966946
N       2.51838852      1.02304706     -0.88420168
C       1.19015496      0.92897146     -0.53509450
O       0.37065869      1.71232638     -1.00175515
H      -3.55296871      1.30342234     -0.83400051
H      -4.75511491      0.04229087     -0.46860366
H      -3.47322827     -0.24218330     -1.67059451
H      -3.02688415      0.17642284      1.33196790
H      -2.94415841     -1.39735632      0.47930070
H       1.70230125     -1.63234309      1.70241687
H       3.90463271     -1.20195651      1.00678165
H       2.75469348      1.74664023     -1.54867032
