33
O=C(O)c1ccccc1CC(=O)c1ccccc1C(=O)O
O      -0.31519639      0.58051385      1.95602027
C      -1.36977529      0.06601399      1.63165119
O      -1.75034196     -1.15873609      2.03038227
C      -2.30223144      0.59433951      0.61562633
C      -3.68093758      0.52901180      0.85884046
C      -4.57888106      1.02775592     -0.08297246
C      -4.10310648      1.58766463     -1.26695250
C      -2.72945596      1.64695309     -1.51743679
C      -1.80616916      1.14604061     -0.58451164
C      -0.32274957      1.21905937     -0.89310006
C       0.38288609     -0.13286991     -0.89363095
O      -0.15141033     -1.16870577     -1.28282212
C       1.80199815     -0.18188307     -0.45149620
C       2.67393413      0.85638081     -0.81516353
C       4.02482018      0.80048878     -0.46013897
C       4.51900941     -0.29172986      0.25094522
C       3.66267607     -1.33084923      0.61367132
C       2.30509228     -1.27705174      0.26402365
C       1.44061742     -2.37469517      0.72757273
O       0.55105999     -2.30610835      1.55530405
O       1.79976215     -3.52514699      0.13215344
H      -0.89963600     -1.60646634      2.27046576
H      -4.05343758      0.08754164      1.78028907
H      -5.64826660      0.97540954      0.10450623
H      -4.80453873      1.97296669     -2.00330552
H      -2.38762244      2.07934872     -2.45563822
H      -0.16744116      1.65333283     -1.88864392
H       0.14166576      1.90222926     -0.17322364
H       2.32561218      1.70873284     -1.39292793
H       4.69562660      1.60810116     -0.74603344
H       5.57108079     -0.33365767      0.52395353
H       4.05026292     -2.17925058      1.17359420
H       1.12509361     -4.17473426      0.41899815
