35
CCNc1nc(NC(C)CC)nc(OC)n1
C       4.76635519     -1.66684664     -1.11854944
C       3.85781802     -0.49161944     -0.79297048
N       2.67683362     -0.97485066     -0.10184598
C       1.72869341     -0.00086444      0.19147778
N       0.46759476     -0.41069035      0.16927845
C      -0.45208412      0.49988101      0.46291373
N      -1.79482639      0.16204748      0.47874569
C      -2.24502708     -0.91495371     -0.39353407
C      -2.31431202     -0.42545395     -1.84251702
C      -3.64058267     -1.37548957      0.06613108
C      -3.61969391     -2.02849851      1.44273037
N      -0.18379297      1.76237174      0.75103406
C       1.10897223      2.06627095      0.74425930
O       1.50868806      3.35858232      1.01816531
C       0.44724846      4.18957979      1.46788227
N       2.10264072      1.23833795      0.46132035
H       5.66730261     -1.32095042     -1.63457315
H       5.07258070     -2.19058344     -0.20671580
H       4.25769431     -2.38982954     -1.76516581
H       4.41411770      0.21590334     -0.16665324
H       3.58042019      0.01530505     -1.72520263
H       2.17760912     -1.73270987     -0.55440828
H      -2.33592201      1.01828606      0.45294436
H      -1.57090285     -1.77925731     -0.33851445
H      -2.98245296      0.43770559     -1.93973534
H      -2.68297564     -1.21717322     -2.50322043
H      -1.32750407     -0.12167925     -2.20766410
H      -4.04058404     -2.10144935     -0.65235422
H      -4.33588115     -0.52685350      0.08508646
H      -4.62167746     -2.38197360      1.70620866
H      -3.29959435     -1.32345033      2.21602067
H      -2.94252080     -2.88841135      1.45801927
H      -0.01184205      3.79343378      2.38056541
H      -0.30230303      4.33590794      0.68237904
H       0.86991048      5.16997546      1.70846218
