31
CNC(=O)Oc1cccc(N=CN(C)C)c1
C       5.08709952     -1.37812825     -0.87753233
N       4.28536583     -0.25201296     -1.26988614
C       3.16887354      0.12127739     -0.57282306
O       2.80843328     -0.38391105      0.48149929
O       2.52774652      1.13998153     -1.25944064
C       1.34727059      1.58769360     -0.65782993
C       1.33860625      2.86328334     -0.09697252
C       0.15822987      3.35353013      0.45801373
C      -0.99776509      2.56766064      0.44045092
C      -0.98370484      1.28851680     -0.12676331
N      -2.15563854      0.51975053     -0.14740713
C      -2.26247642     -0.35938848      0.79481367
N      -3.31591856     -1.22749311      0.98074863
C      -3.16408778     -2.36982864      1.86684794
C      -4.32066341     -1.35640064     -0.06543683
C       0.19355701      0.80575646     -0.70026877
H       5.17016519     -1.42853747      0.21140460
H       6.07868598     -1.27163423     -1.32322222
H       4.61198318     -2.29023650     -1.24805173
H       4.39321620      0.15573522     -2.18804417
H       2.23920442      3.46939242     -0.09307355
H       0.13247820      4.34558918      0.90021602
H      -1.92131911      2.94982799      0.86735580
H      -1.47275003     -0.48365481      1.56163118
H      -2.64373040     -2.08499023      2.78757876
H      -4.13879920     -2.77544165      2.15766255
H      -2.59077893     -3.16125342      1.37328620
H      -3.91258935     -1.90384642     -0.92144494
H      -5.20256343     -1.89411065      0.29880117
H      -4.66279691     -0.37332604     -0.40621233
H       0.20466642     -0.17380066     -1.16592182
