41
CO[Si](CCC(F)(F)C(F)(F)C(F)(F)C(F)(F)C(F)(F)C(F)(F)F)(OC)OC
C      -3.09007700     -0.60634527      3.05969204
O      -2.79386544     -1.21757806      1.81344634
Si     -2.68867275     -0.24822435      0.46005541
C      -1.58914336     -1.08910097     -0.83280701
C      -0.26037127     -1.69915426     -0.35859734
C       0.78583326     -0.68089511      0.10269788
F       0.38651603     -0.10279233      1.25945161
F       0.85764130      0.31168600     -0.82273829
C       2.16257331     -1.31019272      0.29267834
F       2.60761376     -1.82498885     -0.88806499
F       2.04094266     -2.39721657      1.11923681
C       3.20161594     -0.36845724      0.88187699
F       4.37644838     -1.06423331      1.02112848
F       2.83520659     -0.05742282      2.16609830
C       3.50032918      0.93084366      0.14804866
F       2.41561451      1.74917920      0.17591145
F       4.45963954      1.59984158      0.86170052
C       3.98619395      0.73742452     -1.26911342
F       5.02990451     -0.13675417     -1.29920508
F       3.00967116      0.17384276     -2.03286480
C       4.39669483      2.07194610     -1.86312170
F       5.41591023      2.65106127     -1.18891293
F       3.37456093      2.95839202     -1.88713936
F       4.81419602      1.92501831     -3.14643324
O      -2.06505331      1.23098716      0.90271968
C      -2.08097277      2.29347258     -0.03554503
O      -4.22343038     -0.00480499     -0.14502779
C      -5.11979648     -1.10248300     -0.20191497
H      -3.19896319     -1.39837469      3.80724520
H      -4.03321985     -0.04921745      3.02148670
H      -2.27307347      0.04834301      3.38312819
H      -1.40012493     -0.37970966     -1.64651881
H      -2.18523732     -1.90033275     -1.26846947
H       0.14996250     -2.26282203     -1.20599432
H      -0.45042919     -2.41792256      0.44783858
H      -3.10504157      2.56330715     -0.31659249
H      -1.62186566      3.16822089      0.43566145
H      -1.49451334      2.04845302     -0.92795162
H      -6.04438620     -0.76020077     -0.67728035
H      -5.37321374     -1.46088152      0.80194719
H      -4.71561735     -1.92191378     -0.80671847
