30
COC1=Cc2ccccc2Nc2ccccc21
C      -1.74431825      3.04318975      0.72188277
O      -1.50536218      2.45171152     -0.55686684
C      -0.69401401      1.32516407     -0.42129263
C       0.61597241      1.46575297     -0.66331768
C       1.68128327      0.46023572     -0.59340829
C       2.84653546      0.72660239     -1.34073475
C       3.96841285     -0.09735019     -1.25622790
C       3.95033643     -1.19321318     -0.40637033
C       2.80522806     -1.46656208      0.34282890
C       1.65090576     -0.65996690      0.25213105
N       0.52960701     -1.03839332      1.02840477
C      -0.82748154     -0.99056150      0.62562322
C      -1.63927136     -2.09108050      0.98159604
C      -2.97553343     -2.17492215      0.59095824
C      -3.53175187     -1.15480557     -0.16385814
C      -2.75322683     -0.04861099     -0.50422399
C      -1.40128513      0.06340560     -0.10778945
H      -2.29158579      2.36174854      1.38173674
H      -2.36010124      3.93428774      0.56854928
H      -0.80513978      3.35490931      1.19192423
H       0.95548970      2.46341756     -0.93573122
H       2.88969643      1.59363038     -1.99745283
H       4.85427039      0.12636912     -1.84434374
H       4.82167734     -1.83727141     -0.32543637
H       2.81549648     -2.33544368      0.99636096
H       0.72412281     -1.86667653      1.57928735
H      -1.22278835     -2.91359698      1.55819848
H      -3.57270019     -3.03901172      0.86860859
H      -4.56882600     -1.20900755     -0.48322729
H      -3.21564845      0.74604960     -1.08780916
