30
CCCCCCc1ccccc1
C       4.53063714      0.87917074      0.57016073
C       3.20297106      0.74039200     -0.15749115
C       2.31956945     -0.32707118      0.48782596
C       0.98464737     -0.46335977     -0.24762505
C       0.09977098     -1.53156334      0.40250086
C      -1.21328069     -1.76396509     -0.35337189
C      -2.16270907     -0.59242424     -0.30042103
C      -2.37377680      0.20535519     -1.43294333
C      -3.24758553      1.29269526     -1.38031058
C      -3.91882200      1.59268472     -0.19657624
C      -3.71715253      0.80580935      0.93556300
C      -2.84358069     -0.28160741      0.88463173
H       5.14630567      1.64755192      0.09219439
H       4.37713455      1.16806361      1.61482045
H       5.08821089     -0.06270048      0.55217038
H       3.39273628      0.48283637     -1.20599101
H       2.68575409      1.70689931     -0.14920528
H       2.13568837     -0.06669211      1.53733548
H       2.84351895     -1.29063117      0.48081031
H       0.47077720      0.50475833     -0.24139878
H       1.16891063     -0.72720176     -1.29609067
H      -0.10376067     -1.25687631      1.44471630
H       0.65038064     -2.48030679      0.42833251
H      -0.99791405     -2.02927578     -1.39610837
H      -1.72365734     -2.63636085      0.07496927
H      -1.85535595     -0.01306715     -2.36367265
H      -3.40366152      1.90614288     -2.26366531
H      -4.59874934      2.43933478     -0.15643829
H      -4.24022788      1.03855566      1.85923061
H      -2.69677920     -0.88714671      1.77604766
