32
CCC(C)(S(=O)(=O)CC)S(=O)(=O)CC
C      -1.45483247     -2.60149333     -1.31731794
C      -0.37332228     -1.53021114     -1.38516473
C       0.09203506     -0.87645911     -0.04765596
C       0.50765577     -1.96310464      0.96341726
S      -1.19822097      0.14028790      0.70969682
O      -2.37619179     -0.69349505      0.87533668
O      -0.63823136      0.76917378      1.89246306
C      -1.63931411      1.44750949     -0.43488841
C      -2.87220000      2.19896193      0.03632794
S       1.55330210      0.14204895     -0.45483036
O       1.15278958      1.11463047     -1.45644853
O       2.63121850     -0.78059601     -0.77477998
C       2.07390042      1.05636062      0.99727812
C       3.44867791      1.67129113      0.79844162
H      -1.58804429     -3.04642341     -2.30986873
H      -2.42339728     -2.19134005     -1.02601172
H      -1.18995168     -3.41236364     -0.63416436
H      -0.70311028     -0.75868092     -2.08937183
H       0.49730076     -2.00063794     -1.86230143
H       1.24482906     -2.64981964      0.53367053
H       0.95107564     -1.53106701      1.86555511
H      -0.35017234     -2.55717708      1.29536901
H      -1.83076671      1.00297798     -1.41275010
H      -0.80273751      2.14489355     -0.49448913
H      -3.10897068      3.01180796     -0.65700277
H      -2.71456925      2.63105136      1.02973318
H      -3.74213040      1.53709008      0.09294263
H       2.09487703      0.37541082      1.84962870
H       1.35425011      1.85903761      1.16744118
H       3.46202237      2.33236111     -0.07405814
H       4.21003444      0.89979825      0.64632435
H       3.73219467      2.25817598      1.67747797
