14
CCOC(C)=O
C      -2.11471090      0.93928564      0.09102427
C      -1.18563436     -0.25814307      0.04560542
O       0.16268233      0.22323717     -0.00761123
C       1.10306306     -0.75979721     -0.05226918
C       2.47286015     -0.15588962     -0.10567534
O       0.87641843     -1.96133180     -0.04973388
H      -1.97232949      1.57138109     -0.79174821
H      -1.89935238      1.56132849      0.96611758
H      -3.16002711      0.62074763      0.13259804
H      -1.32508266     -0.86876321      0.94473937
H      -1.39941081     -0.85851760     -0.84579511
H       3.21970601     -0.95421196     -0.14124193
H       2.57363385      0.45547183     -1.00592129
H       2.64818389      0.44520261      0.79004279
