18
COc1ncnc2nccnc12
C       3.03497585     -0.92047758      0.17031824
O       1.63706889     -1.17681240      0.10542061
C       0.85697871     -0.02928753      0.04349606
N       1.48053164      1.16843943      0.05085965
C       0.67285384      2.22458323     -0.01062496
N      -0.65809539      2.18477486     -0.07647873
C      -1.23617466      0.98547339     -0.08153477
N      -2.57241048      0.95899206     -0.14791898
C      -3.18567700     -0.24589505     -0.15462628
C      -2.48512894     -1.42772156     -0.09600405
N      -1.14249360     -1.44190945     -0.02848846
C      -0.51941369     -0.22004872     -0.02162755
H       3.54912456     -1.88543372      0.21528597
H       3.29452320     -0.36294992      1.07685312
H       3.38486726     -0.39887874     -0.72718940
H       1.13649048      3.20544868     -0.00694923
H      -4.26834151     -0.22642441     -0.20922788
H      -2.97967914     -2.39187256     -0.10156336
