30
CC(CCC(=O)O)=NNC(=O)c1ccncc1
C       1.45277450     -3.20584660     -1.93336550
C       0.99221403     -1.99814642     -1.15089228
C       1.92666088     -0.79932891     -1.13307076
C       2.70304715     -0.74593358      0.17599558
C       2.28293712      0.43342037      1.00459275
O       1.56873870      0.40968994      1.99339225
O       2.78221256      1.59436513      0.54095623
N      -0.12201852     -2.10906110     -0.48801679
N      -0.59467019     -1.00946539      0.17512196
C      -1.17357541      0.03619782     -0.54377325
O      -1.08816284      0.18598681     -1.75977016
C      -1.96101826      1.01649410      0.25615383
C      -2.92098684      1.78544719     -0.40426539
C      -3.64436577      2.70251864      0.33461264
N      -3.46773460      2.90092276      1.65811712
C      -2.52404378      2.15561012      2.27067580
C      -1.75037024      1.20922670      1.62244039
H       1.63754198     -2.91744489     -2.97150245
H       2.37807602     -3.58794873     -1.49402009
H       0.69457513     -3.99330223     -1.91302043
H       1.38002643      0.12320439     -1.33726213
H       2.63497093     -0.92248501     -1.96157543
H       2.58138338     -1.65208974      0.78028463
H       3.77784113     -0.64692109     -0.01818520
H       2.43499340      2.27891324      1.14983076
H      -1.08205693     -1.25863787      1.03146023
H      -3.10188494      1.67140123     -1.46853939
H      -4.40557008      3.32229663     -0.13105665
H      -2.39760492      2.35068336      3.33222887
H      -0.99393003      0.67023313      2.18089919
