40
Cc1ccc(NC(=O)NC(C)(C)c2ccccc2)cc1
C       6.94248644      0.58487148      0.22816791
C       5.44451884      0.53669206      0.18087608
C       4.77881900     -0.68113844      0.01096989
C       3.38176691     -0.72783697     -0.06433159
C       2.62865968      0.44279882      0.02271094
N       1.22222322      0.48056728     -0.05405464
C       0.34856037     -0.58756938     -0.06658388
O       0.63991822     -1.76565088      0.07643912
N      -0.94425579     -0.14071803     -0.24670761
C      -2.12604163     -1.01766832     -0.34964467
C      -1.99167218     -1.91371613     -1.60018964
C      -2.26926995     -1.93505812      0.88540101
C      -3.35829688     -0.08417569     -0.40230196
C      -3.58218749      0.82660771      0.65263858
C      -4.67424381      1.69736694      0.64548283
C      -5.56816192      1.68112738     -0.41919086
C      -5.36824405      0.79597999     -1.47417647
C      -4.27464092     -0.07671777     -1.46745215
C       3.29614931      1.66435578      0.17202981
C       4.69192413      1.71233449      0.24711160
H       7.34555039      0.69421748     -0.78331788
H       7.28718303      1.42554496      0.83946092
H       7.34874475     -0.32881788      0.67466066
H       5.34040804     -1.60986757     -0.06453804
H       2.91264851     -1.69765762     -0.19852165
H       0.79206761      1.38637771      0.05101632
H      -1.01835107      0.71086432     -0.78243449
H      -1.86346864     -1.31448991     -2.50956570
H      -2.86963841     -2.55669902     -1.73227395
H      -1.12309026     -2.57776313     -1.53579452
H      -1.48907585     -2.70246011      0.91989826
H      -3.23329055     -2.45804811      0.87789858
H      -2.20204926     -1.37377875      1.82424005
H      -2.89586859      0.86327636      1.49737025
H      -4.82539212      2.38545893      1.47315923
H      -6.42021157      2.35551954     -0.42695354
H      -6.06653031      0.78086668     -2.30757757
H      -4.16611179     -0.74690954     -2.31585869
H       2.74233640      2.59723667      0.23212867
H       5.18612819      2.67467680      0.35897286
