32
NC(=O)c1ccc(NC(=O)c2ccc(N)cc2)cc1
N       6.42464985     -0.29119202     -0.19361426
C       5.61901490      0.54005561      0.53426288
O       6.09922731      1.34031710      1.32716054
C       4.14838348      0.40415077      0.35719298
C       3.58113779     -0.17417151     -0.78232377
C       2.18875458     -0.27988379     -0.90192258
C       1.34876867      0.19307635      0.10833702
N      -0.05876362      0.12724007      0.05698563
C      -0.83399160     -0.49351833     -0.90614877
O      -0.43579896     -1.16480539     -1.85026412
C      -2.30399679     -0.34358321     -0.71629546
C      -3.13292720     -1.42424638     -1.03177973
C      -4.51627437     -1.31989273     -0.85900663
C      -5.09304378     -0.12360517     -0.42479053
N      -6.46068520     -0.06439453     -0.13881980
C      -4.25520745      0.93956291     -0.07558456
C      -2.86926579      0.84513619     -0.24169357
C       1.92098885      0.78926496      1.23877994
C       3.31021082      0.89652080      1.36251602
H       6.07614686     -1.13021310     -0.63394230
H       7.40951481     -0.26439628      0.03861406
H       4.19750323     -0.52667894     -1.60386425
H       1.79088224     -0.72695657     -1.80823295
H      -0.54559173      0.51618380      0.85420961
H      -2.70373346     -2.35492140     -1.39730958
H      -5.14040926     -2.18370982     -1.07343144
H      -7.02359245     -0.71191243     -0.68238544
H      -6.84558466      0.87506541     -0.14513661
H      -4.67916456      1.85891278      0.32093990
H      -2.25359884      1.71042061     -0.01326581
H       1.29945469      1.17828868      2.04123287
H       3.73699164      1.36388554      2.24818596
