40
CSc1ccc(C(=O)C(C)(C)N2CCOCC2)cc1
C       6.01988891     -0.90736561      0.40911904
S       5.73789187      0.64534497     -0.48346199
C       3.96182085      0.76780130     -0.36898463
C       3.28882121      0.67559461      0.85431469
C       1.89715753      0.79183837      0.90511481
C       1.17380365      0.99586776     -0.27295557
C      -0.29648373      1.13221475     -0.18050335
O      -0.70925169      2.09462757      0.46763416
C      -1.22441770      0.09724124     -0.88908481
C      -1.81727894      0.80298471     -2.12878860
C      -0.48245409     -1.15850055     -1.40349371
N      -2.30716387     -0.39204714      0.03212701
C      -3.38463324      0.57842108      0.33246127
C      -4.48920248     -0.05623337      1.19852908
O      -3.96546731     -0.57995523      2.42408677
C      -2.95439777     -1.55270396      2.14417673
C      -1.81051074     -0.94723036      1.31283726
C       1.83744851      1.13283487     -1.49293625
C       3.22957826      1.01429073     -1.53705651
H       5.80079887     -0.79191998      1.47357664
H       7.07080878     -1.19078250      0.30532135
H       5.40253873     -1.70820283     -0.00722223
H       3.83767943      0.53785140      1.78235378
H       1.38315598      0.73954513      1.86244710
H      -1.04301644      1.00703452     -2.87723006
H      -2.58239449      0.18508548     -2.61296543
H      -2.26148007      1.77331272     -1.87975414
H       0.16108654     -1.61036792     -0.64160341
H      -1.19167537     -1.92458086     -1.74115027
H       0.15549903     -0.93174523     -2.26475386
H      -2.98917852      1.44743047      0.86751419
H      -3.86544015      0.92936624     -0.58540615
H      -5.00460033     -0.85766218      0.65509865
H      -5.23656257      0.70127942      1.45603440
H      -2.56468593     -1.90903259      3.10320263
H      -3.40691666     -2.41013544      1.63123460
H      -1.32975794     -0.16136841      1.90758925
H      -1.07537753     -1.73882751      1.14182656
H       1.29309910      1.34738987     -2.40784089
H       3.74127030      1.12418774     -2.49140810
