22
C=CC(=O)OCCCS(=O)(=O)[O-].[K+]
C      -4.28295950     -1.03046805     -0.38965236
C      -3.10023741     -1.26201682      0.19403377
C      -2.02979217     -0.23958298      0.17937592
O      -2.12092693      0.85806033     -0.34414987
O      -0.96672979     -0.75861831      0.83542122
C       0.19061557      0.09531198      0.95136797
C       1.06942366     -0.06489813     -0.28441150
C       2.22980479      0.91979418     -0.34973747
S       3.40717309      0.76410317      0.97354829
O       3.69118927     -0.66812546      1.01325713
O       2.68562099      1.28457437      2.13240820
O       4.51788597      1.59876104      0.52160900
K       0.00000000      0.00000000      0.00000000
H      -5.06435600     -1.78163769     -0.37707211
H      -4.49117787     -0.08814621     -0.88943417
H      -2.88432812     -2.19820741      0.69420829
H       0.71459730     -0.23849791      1.85088572
H      -0.11371923      1.13670309      1.10818533
H       0.45714076      0.06275546     -1.18557811
H       1.43554933     -1.09785130     -0.32970402
H       1.87111240      1.95450479     -0.35295052
H       2.78411389      0.75348188     -1.28045284
