64
COC(=O)C1=C(C)NC(C)=C(C(=O)OCCN(C)Cc2ccccc2)C1c1cccc([N+](=O)[O-])c1
C      -7.22119303     -0.56877467      0.32967637
O      -6.04401643     -1.25390305     -0.09786739
C      -5.06545707     -0.43183809     -0.55169618
O      -5.11486928      0.78784775     -0.60266288
C      -3.85467157     -1.20800341     -0.89648907
C      -3.85968693     -2.31304381     -1.67576137
C      -5.08530336     -2.89746196     -2.33030103
N      -2.66232170     -2.95330915     -1.95777429
C      -1.41079271     -2.48381450     -1.58732897
C      -0.23309650     -3.25832568     -2.12392072
C      -1.31537303     -1.37359813     -0.82104846
C      -0.00349829     -0.84489765     -0.38512206
O       0.92062736     -1.52943445      0.02386958
O       0.00406907      0.50483430     -0.52062514
C       1.22135700      1.15854090     -0.11721964
C       2.25287428      1.12003888     -1.25828118
N       3.55692973      1.75885895     -1.01916572
C       3.43177463      3.19369877     -0.76584706
C       4.31418373      1.07559553      0.04330592
C       5.78466100      1.44034449      0.05769209
C       6.58462986      1.21387233     -1.07261454
C       7.94238295      1.53595868     -1.05835596
C       8.51630751      2.08470998      0.08665103
C       7.73347357      2.31196674      1.21729624
C       6.37462645      1.99062556      1.20467953
C      -2.55791138     -0.63347087     -0.33527702
C      -2.59793996     -0.57642882      1.19731478
C      -2.71145258     -1.74868423      1.96712362
C      -2.74742285     -1.68963883      3.36226316
C      -2.66659790     -0.45957869      4.01364648
C      -2.54888497      0.71198788      3.25649706
N      -2.44800695      2.00677764      3.93765157
O      -2.07103555      2.98082754      3.27024658
O      -2.73749283      2.04815086      5.14202681
C      -2.51748215      0.66205317      1.85591304
H      -6.99804724      0.07230466      1.18831949
H      -7.95588473     -1.31778064      0.63781922
H      -7.64749801      0.01608219     -0.49168257
H      -5.89911987     -2.17450275     -2.43408114
H      -5.44615808     -3.75629955     -1.75567726
H      -4.85048584     -3.24030211     -3.34458126
H      -2.69425684     -3.75473016     -2.58374397
H      -0.44253919     -3.62045140     -3.13699391
H      -0.03162000     -4.12572691     -1.48746136
H       0.67626953     -2.65595671     -2.19966540
H       1.60370307      0.70974677      0.80629864
H       0.94916022      2.19236792      0.11728151
H       1.79690331      1.57307530     -2.14918097
H       2.42301800      0.07843105     -1.55993669
H       2.84125170      3.67387269     -1.55433734
H       2.95883751      3.41021735      0.19822838
H       4.41145654      3.68330064     -0.78039149
H       3.86836820      1.27245518      1.02671564
H       4.26825210     -0.01209806     -0.10305330
H       6.14181730      0.79151903     -1.97236308
H       8.54975321      1.36017679     -1.94196342
H       9.57330015      2.33629587      0.09743926
H       8.18164183      2.74001094      2.10999152
H       5.77936976      2.17450298      2.09571847
H      -2.48794158      0.39210216     -0.72628303
H      -2.77157654     -2.72206174      1.48004788
H      -2.83491772     -2.60709377      3.94050742
H      -2.69099988     -0.43086579      5.10095030
H      -2.43544704      1.57892412      1.27290205
