23
Cc1ccc2c([N+](=O)[O-])ccc(O)c2n1
C       3.55690055     -0.27460798     -0.68323339
C       2.12543303      0.03963978     -0.36590007
C       1.75344190      1.33086862     -0.02954559
C       0.41522925      1.58527598      0.25682500
C      -0.54501484      0.54715373      0.20127462
C      -1.93765795      0.66467736      0.47029323
N      -2.51266390      1.95149962      0.82105130
O      -3.12779789      2.01818527      1.89334665
O      -2.36446607      2.88110681      0.01716046
C      -2.81648817     -0.42731605      0.41786417
C      -2.31279409     -1.67353109      0.07686250
C      -0.95405624     -1.79670177     -0.19709375
O      -0.48265311     -3.04434376     -0.53270005
C      -0.05899266     -0.72781385     -0.14311717
N       1.23703394     -0.97964020     -0.42175954
H       4.19332131     -0.05003609      0.17831908
H       3.67741393     -1.33458410     -0.92915949
H       3.89205762      0.31478622     -1.54232082
H       2.48532801      2.13185143      0.00996661
H       0.13465914      2.60343514      0.51991484
H      -3.87585361     -0.31116926      0.63678494
H      -2.96096317     -2.54389964      0.02301414
H       0.47858300     -2.90483617     -0.67784768
