58
CCOC(=O)CCN(SN(C)C(=O)Oc1cccc2c1OC(C)(C)C2)C(C)C
C      -8.02704529      2.86937283      1.74623670
C      -7.30171964      2.65248248      0.43213536
O      -6.13549157      1.85946737      0.68975788
C      -5.42310822      1.53119057     -0.42688101
O      -5.72284319      1.84834469     -1.56899768
C      -4.22213124      0.71099228     -0.03220967
C      -3.38885416      0.35000078     -1.26046959
N      -2.15431919     -0.38786440     -0.94021696
S      -0.77778459      0.43780093     -0.51265199
N       0.32612079      0.15806770     -1.78099988
C       0.09372096      0.85505998     -3.02955455
C       1.55668203     -0.46708756     -1.56788604
O       2.41581261     -0.56647841     -2.44421674
O       1.68581601     -0.99380573     -0.28074776
C       2.94120565     -1.53099425     -0.02010549
C       3.08655596     -2.91594600      0.05420598
C       4.34384581     -3.46738941      0.34589067
C       5.45085875     -2.64005935      0.56914379
C       5.27132373     -1.26607975      0.51435406
C       4.03137365     -0.72005371      0.23412766
O       4.01368885      0.64956201      0.23108769
C       5.32950902      1.04550956      0.71094136
C       5.16299810      1.57221688      2.14188276
C       5.83699023      2.16442502     -0.20050394
C       6.26897260     -0.18221844      0.66370675
C      -2.39812216     -1.80101534     -0.58239028
C      -1.50883819     -2.73506451     -1.41029651
C      -2.22263332     -2.08816241      0.91374605
H      -8.32620101      1.91096058      2.18397305
H      -8.91996578      3.48411683      1.60166665
H      -7.37155321      3.36166648      2.47248625
H      -6.99990282      3.61837940      0.01143194
H      -7.96112085      2.13178019     -0.27163023
H      -4.58570650     -0.19532874      0.46278642
H      -3.62679343      1.29723264      0.67664887
H      -3.13123891      1.26618627     -1.81030798
H      -3.99432252     -0.23190178     -1.96822484
H      -0.95768386      0.77824724     -3.32287403
H       0.36853431      1.90748591     -2.90460037
H       0.70232720      0.43050128     -3.83342348
H       2.23343098     -3.56430267     -0.12192445
H       4.45835553     -4.54760298      0.38945606
H       6.42594292     -3.06956574      0.77629222
H       6.11372389      1.92956260      2.55084236
H       4.43918449      2.39472554      2.17105088
H       4.77155558      0.79342603      2.80669056
H       6.83784509      2.49806330      0.09158384
H       5.16141349      3.02617107     -0.17502882
H       5.87141507      1.83019965     -1.24413572
H       6.92710046     -0.16582342     -0.21197143
H       6.87502038     -0.28708448      1.56885272
H      -3.43214662     -2.06890284     -0.83774401
H      -0.45465064     -2.65166133     -1.13306819
H      -1.60428402     -2.52240679     -2.48072176
H      -1.80568799     -3.77859440     -1.25544336
H      -2.84080053     -1.42383514      1.52526563
H      -1.18110483     -1.97733156      1.23439907
H      -2.52526987     -3.11663694      1.13951279
