19
NC(=O)[C@@H]1CCC[NH2+]1
N       2.62339710     -0.75015067      0.20040835
C       1.47136373     -0.70601978     -0.51427508
O       1.15991161     -1.59182857     -1.31051981
C       0.53523297      0.49621775     -0.32610023
C      -0.04302803      0.60157636      1.07838032
C      -1.34666447     -0.17751921      1.00100727
C      -1.90112462      0.20341318     -0.35504917
N      -0.68947208      0.30343337     -1.21613833
H       2.97001593     -0.01453500      0.80482404
H       3.24695512     -1.53853006      0.04649309
H       1.03945421      1.41058349     -0.65312831
H       0.61541829      0.20861110      1.85854254
H      -0.25408974      1.65184650      1.31409832
H      -1.14903700     -1.25529762      1.04377707
H      -2.03248332      0.07488149      1.81465793
H      -2.36771742      1.19325088     -0.34494305
H      -2.57902482     -0.53841012     -0.78396697
H      -0.53303631     -0.59607104     -1.71501655
H      -0.76607115      1.02454796     -1.94305143
