32
Cn1nc(S(N)(=O)=O)sc1=NS(=O)(=O)c1ccc(N)cc1
C       1.70371105      1.14406469     -2.43920530
N       2.17421994      0.50246300     -1.22522395
N       3.54157578      0.32444521     -1.15395444
C       3.83702820     -0.29345239     -0.04559312
S       5.52269530     -0.67972676      0.36033234
N       6.53879921     -0.01304647     -0.81908527
O       5.67831037     -2.11244151      0.23078705
O       5.84756635      0.02192472      1.58328010
S       2.49874916     -0.72408258      1.00166851
C       1.39945566      0.01721638     -0.18538789
N       0.17116882     -0.05116391      0.15683062
S      -1.00538480      0.55660300     -0.74275239
O      -1.10306694     -0.18403640     -1.98499555
O      -0.88850938      2.00177225     -0.76198828
C      -2.47388122      0.16113208      0.18425557
C      -2.82963088     -1.17984263      0.34801306
C      -3.98063939     -1.50099202      1.07195478
C      -4.80154225     -0.49547142      1.59387857
N      -5.88235116     -0.82782560      2.41755945
C      -4.40029389      0.83886804      1.46546913
C      -3.25163093      1.17565957      0.74376052
H       2.54443372      1.44354033     -3.07640337
H       1.08959502      0.45963232     -3.02889034
H       1.14526848      2.05441898     -2.21312066
H       7.19920793      0.62649022     -0.37408800
H       7.00305529     -0.76466544     -1.33187572
H      -2.21475218     -1.97314092     -0.07097590
H      -4.23390952     -2.54729128      1.22493659
H      -6.29141926     -1.73527811      2.21731789
H      -6.58370510     -0.09785139      2.49499356
H      -4.98358517      1.63128981      1.92842403
H      -2.97053821      2.22078822      0.64037123
