8
CC(=O)[O-].[Li+]
C      -0.63685205     -0.04805559     -0.05151433
C       0.87235488      0.07217184      0.06913187
O       1.46677624     -1.00096835      0.36944917
O       1.34018911      1.22475251     -0.14509920
Li      0.00000000      0.00000000      0.00000000
H      -0.88970288     -0.77473074     -0.82935499
H      -1.09372364      0.91133302     -0.31272075
H      -1.05904166     -0.38450270      0.90010823
