14
O=C([O-])CCC(=O)[O-].[Na+].[Na+]
O      -2.26398164      0.33318353     -1.03379366
C      -1.99178524      0.11652384      0.18131574
O      -2.80406198      0.01866807      1.15315392
C      -0.51607336     -0.05305540      0.56123141
C       0.51607305      0.05305151     -0.56123193
C       1.99178557     -0.11651947     -0.18131515
O       2.26398615     -0.33312798      1.03380250
O       2.80405849     -0.01871123     -1.15316125
Na      0.00000000      0.00000000      0.00000000
Na      0.00000000      0.00000000      0.00000000
H      -0.28835433      0.70016877      1.32634112
H      -0.41526150     -1.03264035      1.04584036
H       0.41525915      1.03263451     -1.04584430
H       0.28835562     -0.70017580     -1.32633875
