44
COc1ccccc1N=NC(C(C)=O)C(=O)Nc1ccc2[nH]c(=O)[nH]c2c1
C       3.30235023      2.12867871     -0.15969183
O       2.57037807      0.90546586     -0.10227314
C       3.12996723     -0.08422656      0.67643829
C       3.95312306      0.16246051      1.77965110
C       4.48013732     -0.89907554      2.51968835
C       4.18963638     -2.21445104      2.16533532
C       3.35172122     -2.46925556      1.08056792
C       2.79694862     -1.41154564      0.33980636
N       1.93991377     -1.66748472     -0.75061024
N       0.88981928     -2.21735916     -0.35029919
C      -0.10519904     -2.40480548     -1.42568253
C      -0.51027942     -3.86553114     -1.39067449
C      -1.20661433     -4.39019356     -0.15568561
O      -0.22661740     -4.62922689     -2.32024295
C      -1.25513326     -1.43243425     -1.18571049
O      -2.42332119     -1.75569794     -1.38662834
N      -0.82536594     -0.16902719     -0.79399095
C      -1.61313714      0.95536094     -0.47279086
C      -0.91086651      2.14569437     -0.14576467
C      -1.57779835      3.33004923      0.19297160
C      -2.94714272      3.27976197      0.20286410
N      -3.87362957      4.27311127      0.49505499
C      -5.16380577      3.73757377      0.36628483
O      -6.21573931      4.32825687      0.53863546
N      -5.00471666      2.39420561     -0.00150898
C      -3.64575325      2.11624371     -0.10819754
C      -3.01295797      0.94288789     -0.45306628
H       3.10275865      2.72813732      0.73236940
H       4.38011231      1.95354616     -0.28890209
H       2.94768822      2.69068884     -1.02975202
H       4.18658542      1.17269875      2.09623564
H       5.11896576     -0.69980290      3.37686082
H       4.60701566     -3.04125531      2.73843900
H       3.11901132     -3.49689895      0.81107659
H       0.31158766     -2.18684709     -2.41908717
H      -1.35621955     -5.47077452     -0.25590125
H      -0.58945058     -4.21018129      0.72872832
H      -2.18212626     -3.91460135     -0.03159598
H       0.18391483     -0.05766050     -0.69495303
H       0.17518858      2.15473747     -0.16003763
H      -1.03345534      4.23434786      0.43687900
H      -3.68996313      5.22867445      0.75250114
H      -5.76941481      1.76163595     -0.16613054
H      -3.59811608      0.06411907     -0.69042474
