60
C=COC(=O)CCCCCCCCCCCCCCCCC
C      11.29729620     -0.46728219     -1.30612849
C      10.14907244      0.20981021     -1.23666156
O       8.95540327     -0.41795975     -0.88282461
C       7.80650315      0.30309525     -1.11017578
O       7.73802304      1.42497563     -1.59427542
C       6.62233316     -0.53795599     -0.68176822
C       5.28883947      0.20712335     -0.76310493
C       5.11136153      1.21451438      0.37763697
C       3.84300385      2.06584878      0.24920191
C       2.52057965      1.29505396      0.18202222
C       2.22437095      0.48896560      1.44969483
C       0.93474603     -0.33423927      1.36116535
C      -0.33107683      0.51432716      1.23269495
C      -1.58771911     -0.36092103      1.26762955
C      -2.85535605      0.47900796      1.09599084
C      -4.15030904     -0.32418074      1.25609720
C      -4.33529816     -1.39876673      0.18153231
C      -5.64388427     -2.18313953      0.32348123
C      -6.93280452     -1.36887274      0.17690780
C      -7.06362624     -0.67963572     -1.18188828
C      -8.43094772     -0.01047570     -1.33728141
C      -8.56912224      0.66394110     -2.69312146
H      11.33420676     -1.53083806     -1.09857120
H      12.22034302      0.03245862     -1.57863842
H      10.07247139      1.27200806     -1.43470585
H       6.79070047     -0.89557895      0.34004420
H       6.58229764     -1.40334248     -1.35318527
H       5.19618758      0.71680701     -1.72995379
H       4.48594315     -0.53751267     -0.71328369
H       5.96893219      1.89701077      0.40438440
H       5.11432114      0.68749662      1.33835072
H       3.92663682      2.68564264     -0.65126003
H       3.80653319      2.76025158      1.09689297
H       1.72180806      2.02966683      0.02377310
H       2.51061655      0.63530662     -0.69316569
H       2.17029605      1.16494299      2.31203256
H       3.04666070     -0.20847633      1.64482461
H       0.86181376     -0.94970320      2.26542456
H       1.00108857     -1.02661863      0.51462517
H      -0.36988183      1.24515186      2.04875350
H      -0.31372902      1.07516366      0.29231441
H      -1.52229117     -1.10890994      0.46821920
H      -1.63048477     -0.90407325      2.22049864
H      -2.84579279      0.96494551      0.11369894
H      -2.85809173      1.28032026      1.84414780
H      -4.17336068     -0.78869736      2.24985847
H      -4.98572448      0.38487212      1.21777289
H      -4.27040384     -0.94812117     -0.81461468
H      -3.51541163     -2.12250691      0.24667236
H      -5.65638597     -2.68089590      1.30116607
H      -5.64777243     -2.98343022     -0.42776192
H      -7.77974348     -2.05221462      0.31384097
H      -7.00686445     -0.62731450      0.97934296
H      -6.28040592      0.07728275     -1.29456610
H      -6.92297359     -1.41553481     -1.98163308
H      -8.57286782      0.73607575     -0.54746123
H      -9.22553723     -0.75665255     -1.22619259
H      -8.45017981     -0.06001867     -3.50496027
H      -9.55800245      1.12459357     -2.78971201
H      -7.81634055      1.44720901     -2.81906184
