14
S=C=Nc1ccc(Br)cc1
S       4.06241267      0.53660067      1.26153538
C       2.90233933     -0.00266811     -0.00561114
N       2.15637695     -0.35822024     -0.84106484
C       0.81600065     -0.19396089     -0.45548019
C       0.12702995     -1.23443196      0.18290017
C      -1.21529035     -1.08406821      0.54176421
C      -1.87855463      0.10586403      0.24827716
Br     -3.69422650      0.31147459      0.73089909
C      -1.21507481      1.14215314     -0.40585764
C       0.12724513      0.98751980     -0.76290406
H       0.63726305     -2.17018156      0.39910593
H      -1.73177612     -1.89964048      1.04129012
H      -1.73139208      2.06762610     -0.64743185
H       0.63764676      1.79193312     -1.28742234
