24
CCC1(CO)COCOC1
C      -2.18505600     -1.02099313     -0.75161530
C      -1.05060569     -1.01843248      0.26672625
C      -0.07941013      0.19949941      0.20087670
C      -0.84731174      1.51215091      0.43363206
O       0.03980680      2.62381038      0.47650221
C       1.00294711      0.01754502      1.28607467
O       1.79861286     -1.13821683      1.01840500
C       2.42419799     -1.03290626     -0.25495555
O       1.47344521     -0.92373470     -1.30822393
C       0.67429268      0.24690537     -1.14004998
H      -2.84183835     -0.15545262     -0.63006084
H      -1.80899747     -1.03569248     -1.77795632
H      -2.79964107     -1.91742186     -0.61574138
H      -0.49350560     -1.95571905      0.14605517
H      -1.49789273     -1.06205245      1.26864606
H      -1.56491897      1.69956325     -0.37119523
H      -1.39285395      1.47856448      1.38314020
H      -0.50212568      3.41814277      0.63133358
H       1.66907237      0.88606101      1.35897305
H       0.54492189     -0.11712203      2.27245929
H       3.00097596     -1.94747323     -0.41988093
H       3.12478952     -0.18882924     -0.27461916
H       1.32729566      1.12610078     -1.21154827
H      -0.01620068      0.30570298     -1.98697737
