33
CC1(C)C2CCC1(C)C(N)(C(=O)O)C2
C      -1.54320968      1.43515853     -0.93525098
C      -1.18057205      0.06823906     -0.32956072
C      -2.52648255     -0.50505086      0.17775620
C      -0.42718185     -0.85482660     -1.31889342
C      -0.13395119     -2.11799351     -0.47879280
C       0.09248976     -1.54875704      0.93150326
C       0.00928014     -0.00068913      0.70179623
C      -0.18302286      0.73384535      2.01871543
C       1.28298933      0.42362205     -0.13531302
N       2.57206860     -0.18810674      0.33942904
C       1.58638621      1.96369006     -0.18341812
O       0.79413194      2.88707226     -0.13495546
O       2.93164821      2.17256961     -0.28526707
C       0.92969287     -0.12852184     -1.54249917
H      -2.42623936      1.34783383     -1.58083433
H      -1.78759776      2.15824296     -0.15010168
H      -0.77650092      1.86641678     -1.57785379
H      -2.96131127      0.15520677      0.93692808
H      -3.24481592     -0.58133973     -0.64743560
H      -2.47267149     -1.50159870      0.61857179
H      -0.95104385     -1.07302596     -2.25270855
H      -0.98194764     -2.81086920     -0.48584155
H       0.74112632     -2.66659745     -0.84246065
H      -0.68303844     -1.90131904      1.62088582
H       1.03426430     -1.89070907      1.36893759
H      -0.38125302      1.79850794      1.86972006
H       0.70449412      0.64140698      2.65331385
H      -1.03042380      0.32604310      2.58022719
H       2.57064637     -1.18802235      0.12378437
H       2.58585751     -0.13831908      1.36408530
H       3.33679255      1.27144457     -0.20522718
H       0.83797449      0.67101665     -2.28526199
H       1.68142088     -0.82457024     -1.93397814
