23
C=CCC1(C)C(=O)NC(=O)NC1=O
C      -2.67060574     -1.52401090     -0.27358923
C      -2.20801114     -0.34154606      0.15143339
C      -0.89448895     -0.15883231      0.86441283
C       0.16426080      0.67270293      0.09449169
C      -0.32893528      2.10027617     -0.17964603
C       1.40420573      0.72082354      0.97449183
O       1.68864143      1.65885804      1.71395372
N       2.19518870     -0.39721227      0.93640505
C       2.30891484     -1.19892111     -0.15866892
O       3.31416706     -1.87383421     -0.35426570
N       1.30383282     -1.14035428     -1.07373606
C       0.51860793     -0.02748659     -1.20889939
O       0.15068196      0.34382191     -2.31969485
H      -3.63074029     -1.59297689     -0.77769578
H      -2.11528910     -2.44640784     -0.13541446
H      -2.81961937      0.54504940     -0.00932328
H      -0.48680332     -1.14536167      1.12515889
H      -1.10528888      0.32630833      1.82756830
H      -0.64409850      2.59894134      0.74399843
H       0.46774981      2.70878171     -0.62458203
H      -1.17302268      2.11920529     -0.87731202
H       3.02808192     -0.35238327      1.50925299
H       1.53257023     -1.59544126     -1.94833938
