22
COC(=O)/C=C/c1ccccc1
C       4.03569738      1.94315747      1.80093033
O       3.07304843      0.97412088      1.38500524
C       1.90975677      1.51564669      0.94479337
O       1.63807255      2.70295620      0.88217068
C       1.01390709      0.41009296      0.54975168
C      -0.21516941      0.67889306      0.08397074
C      -1.17277936     -0.34788036     -0.34822482
C      -2.03482004     -0.05954853     -1.41458975
C      -2.97797027     -0.99745259     -1.84230884
C      -3.07691593     -2.22959005     -1.20029495
C      -2.23731974     -2.52223809     -0.12781295
C      -1.29329807     -1.58450211      0.29983261
H       4.93054039      1.41037557      2.13438341
H       4.31147461      2.59359161      0.96487336
H       3.65031918      2.53139903      2.63971360
H       1.40277656     -0.59595852      0.64183043
H      -0.54871668      1.71106022     -0.01476982
H      -1.97488114      0.89740643     -1.92883894
H      -3.63579291     -0.76365382     -2.67539958
H      -3.81183230     -2.95864288     -1.53150922
H      -2.32061222     -3.47882362      0.38163456
H      -0.66548489     -1.83040956      1.15244038
