26
O=C(O)CN(CP(=O)(O)O)CP(=O)(O)O
O      -1.60839736      2.67353548     -0.13641456
C      -1.24211126      2.02336911      0.82860170
O      -1.41092546      2.52970224      2.07240377
C      -0.60022810      0.63929869      0.86771669
N      -0.34937539      0.04504831     -0.46458368
C       0.51684865      0.83821759     -1.36768960
P       2.14235588      1.22422265     -0.71945490
O       3.15136506      1.78671778     -1.66534742
O       1.94419373      2.19945282      0.54020265
O       2.71998484     -0.08393557      0.01008107
C       0.10570707     -1.35580107     -0.34534273
P      -1.34371618     -2.42317201     -0.41895827
O      -2.22872597     -2.38200257     -1.62091728
O      -2.17751807     -2.21877001      0.93775168
O      -0.78863368     -3.91198149     -0.18024138
H      -1.82775093      3.40052120      1.90361124
H      -1.31330847      0.01211910      1.41121025
H       0.31522421      0.68444552      1.46422482
H       0.02416417      1.77058326     -1.65592702
H       0.64206630      0.28807481     -2.30816819
H       2.77090662      2.64954757      0.79539354
H       3.67512336     -0.01440768      0.19397493
H       0.73822100     -1.64894675     -1.19067671
H       0.67082439     -1.53915395      0.57454786
H      -3.07413154     -2.59560427      0.87521977
H      -1.45216288     -4.59108076     -0.40121823
