30
CC(=O)OC(C)C1CCCCC1
C       3.48379426      1.78752393     -0.19196088
C       2.99210328      0.37860962     -0.06075523
O       3.68923811     -0.61285667     -0.21954296
O       1.66944947      0.37986066      0.25830331
C       1.04611829     -0.91075154      0.41541174
C       1.29000573     -1.41022185      1.83847296
C      -0.46133473     -0.78409176      0.08259068
C      -0.65106133     -0.42413202     -1.40442616
C      -2.12647695     -0.30584880     -1.77847797
C      -2.84990522      0.69911298     -0.88971943
C      -2.67146976      0.36550283      0.58682160
C      -1.19632221      0.24152645      0.96626266
H       4.54578121      1.77803860     -0.45350979
H       2.93433276      2.29925585     -0.98611215
H       3.36381811      2.31193219      0.75933362
H       1.48431444     -1.62829680     -0.29096457
H       0.73928560     -2.33481008      2.03570642
H       2.35537478     -1.60932714      1.99666723
H       1.00813658     -0.65871631      2.58287662
H      -0.92336309     -1.76743236      0.24862645
H      -0.18325224     -1.18991440     -2.03471812
H      -0.14880071      0.52453997     -1.63192567
H      -2.60644012     -1.28800875     -1.68762099
H      -2.21716325     -0.00201256     -2.82745050
H      -3.91677715      0.71253894     -1.13934216
H      -2.46252938      1.70641378     -1.08619275
H      -3.18585413     -0.57659429      0.81336871
H      -3.14432190      1.14176101      1.19906706
H      -1.13502369     -0.05023781      2.02026926
H      -0.72165677      1.22663631      0.87894102
