25
O=C(O)CSC1CCCCC1
O       3.65239759     -0.41668610     -2.16875853
C       3.30954242     -0.16672281     -1.02178661
O       3.51109878     -1.03827542     -0.00477905
C       2.68523586      1.14957449     -0.60628795
S       1.66807100      0.98566592      0.90670149
C       0.21801947      0.08794908      0.21783639
C      -0.71691715      1.04992589     -0.52392730
C      -1.97332418      0.33138000     -1.01648903
C      -2.69918546     -0.38111726      0.12041997
C      -1.77030347     -1.32918368      0.87226583
C      -0.51608328     -0.61113297      1.36954785
H       3.16021514     -0.67388866      0.83757547
H       3.49547886      1.85475454     -0.39977981
H       2.07624505      1.54107028     -1.42416314
H       0.58154750     -0.68003481     -0.47472578
H      -1.01834215      1.87419989      0.13584607
H      -0.21199288      1.49802888     -1.38682161
H      -2.64877883      1.05361734     -1.48881589
H      -1.69656876     -0.39852491     -1.78728763
H      -3.10323731      0.36293306      0.81790339
H      -3.55236223     -0.94041164     -0.27960687
H      -1.47993431     -2.15627734      0.21272225
H      -2.30335088     -1.77036932      1.72203373
H      -0.80955628      0.11699677      2.13747505
H       0.14208550     -1.34347122      1.85349568
