62
CC1(C)OC2CC3C4CCC5=CC(=O)C=CC5(C)C4(F)C(O)CC3(C)C2(C(=O)CO)O1
C       3.84566009     -2.16080957     -1.70631449
C       3.89899192     -1.33118152     -0.43006271
C       5.33905953     -1.16396875      0.04339102
O       3.15937134     -1.99297096      0.58909631
C       2.12726164     -1.10218785      1.00438814
C       0.77841642     -1.56243068      0.44061521
C       0.40702790     -0.54357693     -0.64869910
C      -1.09875103     -0.42239742     -0.98241173
C      -1.68116674     -1.79650572     -1.35541078
C      -3.12678915     -1.68709975     -1.82259001
C      -3.95871073     -1.00600698     -0.76739648
C      -5.01050964     -1.65115895     -0.23095475
C      -5.82012485     -1.06500366      0.85454428
O      -6.78025452     -1.65943160      1.32672556
C      -5.42580288      0.26835290      1.33984125
C      -4.38067332      0.91505597      0.80747943
C      -3.48683457      0.39245102     -0.31776317
C      -3.68712501      1.38154547     -1.49064380
C      -1.95731179      0.28664510      0.11205783
F      -1.91696659     -0.50758666      1.23835005
C      -1.27526553      1.62275845      0.51357883
O      -1.91026037      2.23502094      1.63778408
C       0.19551542      1.43359539      0.91166623
C       1.06905399      0.77428291     -0.17707122
C       1.24692185      1.74079822     -1.36517285
C       2.43710885      0.25822473      0.37923195
C       3.10037537      1.21063286      1.38959522
O       2.85260254      1.17363431      2.59984672
C       4.03835883      2.28255696      0.84523879
O       4.70953769      2.96656741      1.89716178
O       3.33124688     -0.04572498     -0.69566054
H       4.26010126     -3.16189411     -1.54812357
H       4.38706810     -1.67113156     -2.52228310
H       2.81025921     -2.29236384     -2.03893580
H       5.93388255     -0.60175774     -0.68415503
H       5.37731002     -0.61385606      0.99035900
H       5.81295947     -2.13525800      0.22277955
H       2.08820517     -1.11269639      2.09787286
H       0.04388586     -1.56418212      1.24978399
H       0.82233890     -2.57856627      0.03468662
H       0.90796150     -0.87171863     -1.57131475
H      -1.14921032      0.19668975     -1.88751105
H      -1.63201703     -2.47733130     -0.49654658
H      -1.08271472     -2.25023227     -2.15462212
H      -3.50423301     -2.69293920     -2.04361418
H      -3.18266655     -1.12687700     -2.76266099
H      -5.31572497     -2.64315760     -0.54520254
H      -6.03544146      0.69503095      2.12713677
H      -4.17986121      1.91600928      1.18388324
H      -3.05752391      1.15065159     -2.35478300
H      -4.72668268      1.37244718     -1.84370192
H      -3.46159689      2.41271150     -1.19461976
H      -1.33676263      2.34050532     -0.30924831
H      -1.95784871      1.55681080      2.34038868
H       0.22778567      0.84855073      1.84065699
H       0.61099893      2.41321697      1.18510374
H       1.86238801      1.30446436     -2.15914971
H       1.72104902      2.67415110     -1.05007300
H       0.29102599      2.00763941     -1.82588938
H       4.79826294      1.83413513      0.20287305
H       3.46141774      3.01769125      0.28272088
H       4.18542017      2.80917613      2.70872810
