24
CCOC(=O)[C@H](C)NC(=O)CCl
C       3.88932858     -1.14241869     -0.07865402
C       2.73076304     -0.47487856      0.63614616
O       1.63633121     -0.37520000     -0.28257859
C       0.51557276      0.19538106      0.24368784
O       0.41863971      0.63870181      1.38278034
C      -0.59731900      0.25589033     -0.80770936
C      -0.37508356      1.45661954     -1.71507702
N      -1.89328138      0.36189875     -0.13580038
C      -2.54263893     -0.77145545      0.30820855
O      -2.18620430     -1.90317937     -0.01594551
C      -3.78580395     -0.54446929      1.15079443
Cl     -3.70203752      0.97907120      2.06500178
H       3.60121324     -2.13726742     -0.43413902
H       4.75285801     -1.24074175      0.58505807
H       4.18431792     -0.56266527     -0.95955374
H       3.02778971      0.52676508      0.96648274
H       2.43371858     -1.07701302      1.50213245
H      -0.57978325     -0.67180074     -1.39062045
H       0.58594852      1.38455802     -2.23516961
H      -1.16743285      1.52764302     -2.46778378
H      -0.37317357      2.39212040     -1.14387693
H      -2.02554894      1.17998301      0.45485263
H      -3.88561423     -1.35905695      1.87277120
H      -4.66255981     -0.51279242      0.49899223
