55
COc1ccc(C2Sc3ccccc3N(CCN(C)C)C(=O)C2OC(C)=O)cc1
C       6.35497599      3.82005076      0.51126938
O       6.36364354      2.43699147      0.84198413
C       5.22464511      1.73102510      0.56873207
C       5.28385664      0.37651280      0.89716084
C       4.18997117     -0.46298393      0.67020709
C       3.00988535      0.03818513      0.10123204
C       1.82490336     -0.89538592     -0.12022551
S       1.38312263     -0.95014037     -1.90314361
C      -0.14695284     -1.86467132     -1.80066771
C      -0.17787791     -3.11229473     -2.44295298
C      -1.36459098     -3.83693603     -2.53326382
C      -2.53563872     -3.30997400     -2.00293057
C      -2.51846409     -2.06403696     -1.37122371
C      -1.32605773     -1.33045257     -1.24091649
N      -1.35277285     -0.06375847     -0.57430144
C      -2.47678760      0.84317557     -0.85429900
C      -3.43187239      0.99666408      0.35048819
N      -4.71282441      1.65473840      0.01748006
C      -4.51328940      3.04929130     -0.39013927
C      -5.61049816      1.61104360      1.17555832
C      -0.35974485      0.39831526      0.29469051
O      -0.33534166      1.57591772      0.67277772
C       0.66939385     -0.59502927      0.85423724
O      -0.02923692     -1.79291570      1.27755673
C       0.62612543     -2.59050174      2.15721694
C      -0.20425879     -3.79180553      2.48832228
O       1.75248904     -2.38807998      2.58534209
C       2.95554690      1.40448621     -0.21755007
C       4.05400165      2.24263983      0.01195985
H       7.33023688      4.23521797      0.78384822
H       6.21967226      3.96811481     -0.56564131
H       5.59261962      4.35850708      1.08449141
H       6.19007705     -0.03046059      1.33899782
H       4.26907157     -1.51147266      0.95207943
H       2.17822445     -1.91583681      0.06960730
H       0.72221422     -3.51934772     -2.90018750
H      -1.37702797     -4.80047415     -3.03657872
H      -3.46816423     -3.86407370     -2.08375400
H      -3.45257805     -1.69231541     -0.95820282
H      -2.05177043      1.82038129     -1.11486140
H      -3.02271911      0.50389001     -1.74274756
H      -2.92567073      1.52986860      1.16569227
H      -3.64966191     -0.00860830      0.73348141
H      -4.00926646      3.64000342      0.38308144
H      -3.92780025      3.11072178     -1.31245392
H      -5.47555780      3.52452846     -0.61200565
H      -5.79134783      0.57751869      1.48857461
H      -6.58776239      2.03512232      0.91946868
H      -5.20769225      2.16453572      2.03112451
H       1.05581356     -0.12740871      1.77178907
H       0.11732803     -4.19801454      3.45109038
H      -1.25661834     -3.51064864      2.57839060
H      -0.08155439     -4.54883909      1.70900462
H       2.05721934      1.83961727     -0.65265049
H       3.95636378      3.28940220     -0.25491048
