12
O=CNCC(=O)O
O       0.26929510     -0.30586808     -1.72495936
C      -0.80224321     -0.52631042     -1.17561270
N      -0.96676203     -0.45648186      0.17663790
C       0.16040436     -0.38106338      1.09973427
C       0.90301174      0.95430524      1.15741199
O       1.32655169      1.43414565      2.20171766
O       1.16394917      1.51901228     -0.04225731
H      -1.73848378     -0.73684993     -1.71813298
H      -1.87598311     -0.68706178      0.55934904
H      -0.24162169     -0.58800206      2.09679695
H       0.88269504     -1.16170054      0.83906701
H       0.91918671      0.93587486     -0.80139090
