29
CCCC(=O)OCSc1ncnc2[nH]cnc12
C      -5.82195916     -0.44439377     -0.72020120
C      -4.35803847     -0.84133786     -0.81740528
C      -3.45259611      0.19053092     -0.14987762
C      -1.99471820     -0.19499003     -0.24040193
O      -1.55717916     -1.20099178     -0.77968827
O      -1.23793424      0.75518980      0.37143386
C       0.16608680      0.47270311      0.34698863
S       1.08370025      1.85552684      1.09578963
C       2.71283543      1.48083705      0.52898254
N       3.44813844      2.47666323     -0.03007655
C       4.70079460      2.18902512     -0.43808929
N       5.34789983      1.00916801     -0.36578321
C       4.57397888      0.07263059      0.20009934
N       4.90854996     -1.22915810      0.43513978
C       3.83076990     -1.83050791      1.02447905
N       2.82745254     -0.99270263      1.18054117
C       3.27744758      0.20925079      0.66964959
H      -6.00136169      0.51658682     -1.21280756
H      -6.45183727     -1.19712827     -1.20450368
H      -6.13678762     -0.35936545      0.32477880
H      -4.21696749     -1.82230613     -0.34793928
H      -4.08271933     -0.95357025     -1.87296199
H      -3.57932441      1.16410989     -0.63651648
H      -3.71618074      0.28360182      0.90965776
H       0.34931843     -0.43870518      0.92324711
H       0.49269889      0.34505654     -0.69108775
H       5.25607723      3.01178695     -0.88005580
H       5.79536922     -1.65405676      0.20903319
H       3.83648593     -2.87345338      1.31494536
