23
COc1cc(C(=O)CO)ccc1O
C      -2.18482341     -1.67439990      1.52958432
O      -2.51067580     -0.46156254      0.86031856
C      -1.48848242      0.19395353      0.22316323
C      -0.15364980     -0.21524632      0.16736965
C       0.79016027      0.56189475     -0.52638762
C       2.22925430      0.17252923     -0.61830926
O       3.02859499      0.87867461     -1.23522093
C       2.69874925     -1.10842964      0.05958220
O       4.09249861     -1.31458916     -0.13431923
C       0.38755179      1.74730967     -1.16109800
C      -0.94299587      2.15781189     -1.10708589
C      -1.86327487      1.38031656     -0.41853764
O      -3.16312235      1.80424518     -0.37981900
H      -3.10261918     -2.06445543      1.97990666
H      -1.81342196     -2.42554002      0.82479207
H      -1.46592069     -1.49804256      2.33640795
H       0.15268794     -1.13042267      0.65845419
H       2.17307668     -1.96620327     -0.36791616
H       2.51874038     -1.04371692      1.13581137
H       4.40677940     -0.55696219     -0.67134019
H       1.10906721      2.35813316     -1.70169127
H      -1.25901985      3.07447460     -1.59681182
H      -3.63915463      1.13022743      0.14314682
