42
NS(=O)(=O)c1ccc(Nc2ccnc(NS(=O)(=O)c3c(F)c(F)c(F)c(F)c3F)n2)cc1
N       7.41285168      1.52624558     -1.03415248
S       7.01244592      1.18974543      0.56095088
O       6.87362349      2.47054748      1.21353555
O       7.95346573      0.18926164      1.00648557
C       5.41590836      0.44911005      0.38768667
C       4.26945586      1.23768659      0.49140342
C       3.00760118      0.64291223      0.38050081
C       2.87545538     -0.73702282      0.17983373
N       1.63760655     -1.38853604      0.03456820
C       0.34988713     -0.90609201     -0.21679494
C       0.11317312      0.17807349     -1.03974235
C      -1.20056176      0.54770206     -1.21391575
N      -2.22917099     -0.09555097     -0.64038559
C      -1.89031317     -1.17629358      0.06545868
N      -2.88351345     -1.82401004      0.79132136
S      -4.30379631     -2.15156663     -0.01029939
O      -3.97815838     -2.59689048     -1.34697764
O      -5.08652108     -3.00221212      0.86268877
C      -5.14125317     -0.61831792     -0.06649584
C      -5.62125237     -0.10749581     -1.26529774
F      -5.49980792     -0.77771659     -2.41727518
C      -6.25823707      1.12990986     -1.28321472
F      -6.71813980      1.62645118     -2.43999918
C      -6.42053489      1.85205931     -0.10895552
F      -7.03195137      3.04419238     -0.13216514
C      -5.94980625      1.33466347      1.08899680
F      -6.10660809      2.02753807      2.22518539
C      -5.31252281      0.09918727      1.11270977
F      -4.86687176     -0.37631702      2.28353680
N      -0.65590312     -1.59596906      0.34799953
C       4.04414627     -1.51129199      0.09145716
C       5.31006709     -0.92854814      0.19901156
H       7.51630561      2.53377652     -1.15886323
H       8.24104859      0.99336284     -1.30194256
H       4.34542444      2.30882339      0.66609151
H       2.13275786      1.27650083      0.49552203
H       1.57121145     -2.23169981      0.59852846
H       0.91055143      0.70449570     -1.54651764
H      -1.46517515      1.39434836     -1.84114539
H      -2.54489708     -2.59377700      1.35766041
H       3.97343123     -2.58487059     -0.07342480
H       6.19857761     -1.55241510      0.13239866
