23
Clc1ccc(Oc2cc(Cl)c(Cl)c(Cl)c2)cc1
Cl     -5.28327913      0.82488780      0.06958701
C      -3.68682716      0.18803108      0.14166578
C      -2.81451428      0.38462798     -0.92913504
C      -1.51835894     -0.13240121     -0.87257918
C      -1.10016041     -0.82915784      0.26487044
O       0.15211069     -1.39009234      0.36547111
C       1.23012750     -0.57552572      0.10468015
C       2.25658168     -1.11854369     -0.66421397
C       3.39893782     -0.36106230     -0.94097787
Cl      4.61764776     -1.10522785     -1.91869555
C       3.52846837      0.94214509     -0.43617639
Cl      4.94340008      1.88532042     -0.78230174
C       2.49665842      1.46832454      0.35701277
Cl      2.56681362      3.05796677      1.03821495
C       1.35444612      0.70927428      0.63316295
C      -1.98209464     -1.04508201      1.32483296
C      -3.27751281     -0.52762937      1.26673275
H      -3.13985735      0.93123331     -1.81047655
H      -0.85056216      0.00422504     -1.71853732
H       2.16013648     -2.13121401     -1.04967667
H       0.57066745      1.12030313      1.26517966
H      -1.66152322     -1.61122696      2.19547695
H      -3.96130591     -0.68917616      2.09588280
