22
CC(C)CCOC(N)=O
C      -1.98485756      1.00203130     -1.01987474
C      -1.67475377     -0.31029219     -0.29866056
C      -2.83133822     -0.67245442      0.63600882
C      -0.36134934     -0.24512299      0.49750569
C       0.87478696     -0.02567575     -0.37138960
O       2.02914604     -0.09832001      0.47784002
C       3.20167093      0.06693625     -0.17288998
N       4.22738149     -0.01704309      0.70191509
O       3.34812700      0.26394105     -1.36782392
H      -1.23495118      1.22273427     -1.78545034
H      -2.01544371      1.84283976     -0.31869342
H      -2.95570519      0.94766964     -1.52435507
H      -1.59051847     -1.10410785     -1.05164892
H      -2.64646103     -1.63186823      1.13072334
H      -3.76962452     -0.76166116      0.07821040
H      -2.96903688      0.08854314      1.41177186
H      -0.22788266     -1.17815201      1.06113515
H      -0.41307378      0.54729438      1.25575396
H       0.84328820      0.96128424     -0.84514550
H       0.93749768     -0.80461336     -1.14019049
H       4.04203162     -0.18113324      1.67866892
H       5.17106635      0.08717026      0.36247048
