54
CC(=O)N1CCN(C(=O)/C=C/c2ccc(Sc3ccc4c(c3)OCCO4)c(Cl)c2)CC1
C      -6.11491150      1.57645301      2.85301332
C      -6.48481811      0.28799629      2.15810301
O      -7.33732959     -0.45555721      2.64366166
N      -5.83935346      0.00675339      0.96001851
C      -4.61057187      0.69251847      0.52641181
C      -4.40450512      0.62574025     -0.99859329
N      -4.53717003     -0.75481015     -1.47553565
C      -3.46558440     -1.62752229     -1.60203461
O      -3.56584848     -2.84345593     -1.46317899
C      -2.15797658     -1.01585207     -1.95289588
C      -1.02127259     -1.64774620     -1.62421648
C       0.31763352     -1.15195675     -1.96587614
C       0.64679501      0.20618862     -1.91211878
C       1.94049814      0.63724841     -2.22303151
C       2.93787676     -0.28125705     -2.57915845
S       4.56459347      0.35444269     -2.97783902
C       5.14658566      0.80311275     -1.35211375
C       5.33144203      2.15343136     -1.03243648
C       5.78360750      2.52266984      0.23660855
C       6.05727644      1.54255692      1.18664472
C       5.91021217      0.19142738      0.85939270
C       5.44456048     -0.17820110     -0.40179449
O       6.19981758     -0.82724804      1.73201787
C       6.99268616     -0.36209820      2.83003294
C       6.42042612      0.92865373      3.39201637
O       6.47776171      1.97734225      2.41681403
C       2.61039034     -1.64445166     -2.62408080
Cl      3.76330543     -2.86208195     -3.05261534
C       1.31339079     -2.07301722     -2.31121872
C      -5.83988556     -1.33857243     -1.14423467
C      -6.06838377     -1.32702129      0.37297704
H      -6.72823770      1.69183923      3.75260165
H      -5.06471032      1.55460889      3.15839331
H      -6.31161087      2.42999013      2.19672999
H      -3.77790864      0.20041608      1.04296105
H      -4.62122308      1.74001713      0.83758566
H      -5.17495194      1.21824153     -1.50570512
H      -3.43511749      1.05961963     -1.25107017
H      -2.16676338     -0.09974123     -2.52716723
H      -1.05997925     -2.60179250     -1.09953423
H      -0.09213165      0.94837547     -1.61975154
H       2.16311616      1.70119887     -2.17888659
H       5.12237015      2.92719226     -1.76612136
H       5.91620056      3.57114164      0.48463924
H       5.33296850     -1.23282273     -0.63824189
H       6.98962166     -1.14355267      3.59650185
H       8.02461526     -0.22687790      2.48368453
H       7.00167882      1.25200241      4.26128870
H       5.37628023      0.80162470      3.70627333
H       1.07923519     -3.13535425     -2.34920198
H      -6.60332204     -0.73054436     -1.64332787
H      -5.92382730     -2.35817394     -1.53452561
H      -5.37218548     -2.01374092      0.86934225
H      -7.08536566     -1.66935327      0.59179457
