39
CCCN(CCC)c1c([N+](=O)[O-])cc(C(F)(F)F)cc1[N+](=O)[O-]
C      -3.09663657      1.55093673     -0.46184113
C      -2.08663310      1.76245316      0.65667687
C      -1.55215276      0.44838680      1.23160540
N      -0.68964722     -0.25902936      0.25867935
C      -0.88206691     -1.72338169      0.17024181
C      -2.10200669     -2.04444083     -0.69688640
C      -2.29294017     -3.54468451     -0.85263876
C       0.65237972      0.15339593      0.18915615
C       1.61433368      0.01648903      1.21012294
N       1.30216410     -0.66090317      2.45183749
O       1.15352544      0.05081265      3.45378087
O       1.26803487     -1.89757141      2.42748132
C       2.93969400      0.49083674      1.09721060
C       3.37181697      1.11558778     -0.07926788
C       4.78019734      1.65027284     -0.20188900
F       5.23306420      1.65654666     -1.48398803
F       4.88080619      2.92932802      0.24519547
F       5.68103309      0.92440761      0.51323019
C       2.45593818      1.25327472     -1.12734558
C       1.14028468      0.76855851     -0.98287546
N       0.27415784      0.92033639     -2.13574579
O       0.08627312     -0.08404307     -2.83548317
O      -0.13482293      2.06434800     -2.37794889
H      -2.65430104      1.02402292     -1.31153898
H      -3.95453173      0.97003231     -0.10835672
H      -3.46786845      2.51600051     -0.82095568
H      -1.26525845      2.39150867      0.29697941
H      -2.57987742      2.31918186      1.46254157
H      -2.40283187     -0.18258319      1.51709241
H      -1.01627036      0.66381005      2.16013719
H      -1.01640979     -2.15052971      1.17103666
H      -0.00216864     -2.20448007     -0.27736347
H      -1.98827682     -1.59088154     -1.68790565
H      -3.00829613     -1.61457759     -0.25607232
H      -3.17040277     -3.75263035     -1.47289114
H      -2.44296838     -4.02375361      0.12012129
H      -1.42222916     -4.00351100     -1.33184570
H       3.63505232      0.36437686      1.92936525
H       2.75984163      1.73209634     -2.05965251
