25
Nc1c2ccccc2nc2cc(F)ccc12
N       0.07954923      2.38479609     -0.90074247
C       0.03173988      1.08066386     -0.33143729
C       1.23913847      0.40047174     -0.00734659
C       2.54040617      0.94548238     -0.16583397
C       3.68068763      0.23162205      0.20308022
C       3.54536462     -1.04064806      0.73470152
C       2.27187069     -1.59174685      0.88093539
C       1.12310812     -0.90268710      0.51387191
N      -0.05095092     -1.52739842      0.66915603
C      -1.17682329     -0.92530627      0.27045170
C      -2.35831766     -1.63920218      0.39095774
C      -3.56785946     -1.09990231     -0.02358975
F      -4.69112027     -1.81824281      0.10241131
C      -3.62746919      0.16707592     -0.57349759
C      -2.45154287      0.90431136     -0.69656976
C      -1.20429729      0.37907078     -0.26624360
H       0.88142587      2.92362993     -0.59119849
H      -0.77120527      2.91656301     -0.75179760
H       2.68180515      1.93233826     -0.59658593
H       4.66691048      0.66865536      0.07029290
H       4.42209529     -1.61193637      1.02743106
H       2.17182449     -2.59620573      1.28704156
H      -2.34140047     -2.64153386      0.80814962
H      -4.57871191      0.57040874     -0.90497806
H      -2.51622749      1.88972050     -1.14865988
