41
CCOC(=O)C(C)N(C(=O)c1ccccc1)c1ccc(Cl)c(Cl)c1
C       5.66971966     -1.52281705      0.20507454
C       4.27210678     -1.53814891      0.79260071
O       3.54239340     -0.43797915      0.23671670
C       2.24363263     -0.36212126      0.64228800
O       1.73946839     -1.09857621      1.48571947
C       1.51592851      0.82949863     -0.00018511
C       2.14609529      1.34681833     -1.29690494
N       0.07628348      0.49747975     -0.15102505
C      -0.26088820     -0.53395693     -1.04554658
O       0.53820936     -1.02958763     -1.83860233
C      -1.61082382     -1.15000187     -0.98214925
C      -2.16913892     -1.53777719      0.24195915
C      -3.43556854     -2.12258910      0.27088636
C      -4.13302378     -2.33664508     -0.91900657
C      -3.56293216     -1.97993859     -2.14204688
C      -2.29694764     -1.39488295     -2.17699598
C      -0.87503537      1.36792698      0.46542055
C      -0.68838266      1.80040440      1.78504840
C      -1.61648814      2.64862950      2.39745687
C      -2.74244119      3.08250999      1.69599463
Cl     -3.84809381      4.12670037      2.51360566
C      -2.93570592      2.66586818      0.37646058
Cl     -4.29662874      3.16947757     -0.56248970
C      -2.00443786      1.81592750     -0.23334990
H       6.17348576     -0.57769149      0.43324999
H       6.26880403     -2.34730573      0.60150952
H       5.62994127     -1.60693789     -0.88601647
H       3.77426492     -2.48066310      0.53835159
H       4.32734477     -1.43061055      1.88157148
H       1.62706318      1.64604852      0.72317494
H       1.50850157      2.10263574     -1.76751750
H       2.33053081      0.55228023     -2.02534546
H       3.11667528      1.81154868     -1.08895452
H      -1.61870444     -1.40049410      1.16962639
H      -3.87493768     -2.42100638      1.21954747
H      -5.11843582     -2.79617459     -0.89425804
H      -4.10197885     -2.16509817     -3.06788327
H      -1.84631115     -1.13106163     -3.13097628
H       0.15305313      1.44538158      2.37689280
H      -1.45850257      2.95741195      3.42852190
H      -2.15809494      1.53551762     -1.27242390
