24
Cc1cc(C)c(C(=O)O)c(C)c1
C       3.28274070     -0.80220748     -0.00375927
C       1.82174402     -0.45867576     -0.00439591
C       0.87865092     -1.38011508      0.46352704
C      -0.49005282     -1.06840424      0.48756009
C      -1.46345484     -2.09828856      0.99364581
C      -0.90800709      0.20778160      0.05374544
C      -2.35204108      0.53864866      0.09460685
O      -3.09648869      0.42686142      1.04924304
O      -2.79865692      0.93481717     -1.11058752
C       0.03507666      1.16341394     -0.38172308
C      -0.36178782      2.54370829     -0.82889818
C       1.39358409      0.80854512     -0.41528929
H       3.43198375     -1.87494367     -0.16560954
H       3.73214809     -0.52259067      0.95402921
H       3.80795025     -0.27710843     -0.80852759
H       1.21480046     -2.35681764      0.80872439
H      -1.84461804     -1.80785997      1.97750859
H      -2.29772720     -2.22031202      0.29533345
H      -0.98826321     -3.08009201      1.09516363
H      -3.75741254      1.07839134     -0.97112334
H       0.49585975      3.22535273     -0.81567588
H      -1.11292038      2.97350555     -0.15847325
H      -0.75361953      2.51319132     -1.85009192
H       2.13051147      1.53319839     -0.75893275
