45
COc1cc(-c2c(F)ccc3c(N)c(C(=O)NC4CC4)nnc23)c(OC)nn1
C       5.45094717     -1.16767728      3.81637218
O       4.60060562     -1.77146262      2.84611075
C       4.07960553     -0.86264366      1.94714556
C       3.23997494     -1.36404172      0.97132949
C       2.68499139     -0.48215137      0.03879421
C       1.78249197     -0.97228088     -1.01646874
C       2.31773345     -1.65315629     -2.11708527
F       3.63993020     -1.86611148     -2.19830730
C       1.51352876     -2.12767405     -3.13824255
C       0.14154751     -1.91260912     -3.07451460
C      -0.44548881     -1.21933946     -1.98956047
C      -1.84206264     -0.97312918     -1.90343445
N      -2.72528695     -1.49161991     -2.88709760
C      -2.31090345     -0.36608391     -0.73217490
C      -3.76041838     -0.06546475     -0.50307116
O      -4.60068843     -0.25796663     -1.37898544
N      -4.05662981      0.45055987      0.74741548
C      -5.37383994      0.82671432      1.13956099
C      -5.60601296      1.58621633      2.41673901
C      -5.79923768      2.26770148      1.09412496
N      -1.48635528      0.04283626      0.25684191
N      -0.13904401     -0.15051810      0.13171397
C       0.39391759     -0.76320254     -0.94227682
C       3.02721464      0.86500732      0.16086751
O       2.51263672      1.74857147     -0.77155416
C       2.84319110      3.10636468     -0.49893656
N       3.85794496      1.32162294      1.12824864
N       4.38752047      0.44831191      2.03266663
H       6.32395787     -0.70354544      3.34451324
H       5.81268613     -1.95860709      4.48052084
H       4.90242393     -0.44340815      4.42857052
H       3.02175451     -2.42619322      0.94280431
H       1.95767610     -2.66067237     -3.97349286
H      -0.47207835     -2.30870845     -3.88069340
H      -3.68280962     -1.12812407     -2.77407334
H      -2.40464823     -1.37435852     -3.84238129
H      -3.28174468      0.59155401      1.39087164
H      -6.12579550      0.08619837      0.87287584
H      -6.48938035      1.34126078      2.99525627
H      -4.75149206      1.87803481      3.01524907
H      -5.07064106      3.00950617      0.78934462
H      -6.81117694      2.48098119      0.76992753
H       3.92388464      3.27193585     -0.56697862
H       2.45620189      3.42189416      0.47623877
H       2.36336806      3.72547836     -1.26311747
