21
CCCOC(C)C
C       3.32873574     -0.20276150      0.14506991
C       2.03122394     -0.23427082     -0.64238151
C       0.82774425      0.09433717      0.23280870
O      -0.34031027      0.04492495     -0.58457215
C      -1.53906157      0.40989317      0.10495275
C      -2.57275170      0.76595325     -0.95778521
C      -2.04344471     -0.74387487      0.96586253
H       3.31098809     -0.93373234      0.95972294
H       3.50188537      0.78841672      0.57619724
H       4.17439168     -0.44180195     -0.50728716
H       2.08450862      0.47630510     -1.47597494
H       1.89582451     -1.22294225     -1.09717505
H       0.74904719     -0.63447117      1.04562700
H       0.93599873      1.09784207      0.65984400
H      -1.35865830      1.29570943      0.72588350
H      -2.20580466      1.58463428     -1.58648225
H      -3.52064386      1.07310174     -0.50541251
H      -2.75992357     -0.08292264     -1.62492894
H      -1.34684605     -0.96247704      1.78090278
H      -2.13685193     -1.66145849      0.37471442
H      -3.01605151     -0.51040481      1.41041393
