43
CCCCCCC(C(C)O)n1cnc2c(N)ncnc21
C       6.55450794      0.96307157     -0.89075676
C       5.13005535      0.88769112     -1.41682054
C       4.15191859      0.45541206     -0.32479182
C       2.72025219      0.38074889     -0.85810799
C       1.74060265     -0.05156169      0.23561386
C       0.30893053     -0.13073139     -0.30279142
C      -0.74091748     -0.43458880      0.79039648
C      -0.54392434     -1.80632408      1.48453558
C      -1.61645509     -2.12735147      2.52248099
O      -0.48809459     -2.85843520      0.52003408
N      -2.08883372     -0.27115773      0.24801362
C      -2.64784120     -0.97088806     -0.79101385
N      -3.87939200     -0.57918652     -1.04544522
C      -4.12585787      0.42155746     -0.12781369
C      -5.25103521      1.22624672      0.11769470
N      -6.42326568      1.14102622     -0.62339930
N      -5.20260720      2.11188797      1.13880740
C      -4.06127414      2.19860346      1.85637760
N      -2.92167185      1.49232041      1.71067872
C      -3.02848379      0.61949410      0.69464045
H       6.88754932     -0.01124723     -0.51910837
H       7.23700454      1.27392182     -1.68792750
H       6.63332186      1.68788541     -0.07419757
H       4.83960240      1.86889658     -1.80998199
H       5.09240426      0.17912055     -2.25241256
H       4.44945485     -0.52454205      0.06792735
H       4.19638539      1.16511929      0.51031307
H       2.67537974     -0.32957474     -1.69264699
H       2.42371326      1.36088822     -1.25100588
H       1.78236497      0.66148293      1.06761703
H       2.05008534     -1.02769643      0.62494884
H       0.05799008      0.82837750     -0.77610753
H       0.26371933     -0.88420867     -1.09918535
H      -0.63514750      0.33545998      1.56635426
H       0.42316964     -1.80045342      1.99976067
H      -1.35964054     -3.04948386      3.05574317
H      -2.59019076     -2.30761653      2.05556880
H      -1.71399571     -1.32208435      3.25670247
H      -0.37805322     -3.69816018      1.00115749
H      -2.11519596     -1.75243658     -1.31942435
H      -7.22427776      1.48277248     -0.11012583
H      -6.51751636      0.26286146     -1.12163909
H      -4.06474028      2.93288279      2.65708780
