32
COC(=O)c1cc2cc3c(C)coc3c(C)c2oc1=O
C       6.01065079      0.00834003      0.40697644
O       4.65490103     -0.43897202      0.38563043
C       3.80995380      0.36966840     -0.29667081
O       4.10942707      1.43949123     -0.81010183
C       2.43529898     -0.16768012     -0.26813355
C       1.44545234      0.73569328     -0.18241415
C       0.05510973      0.31181637     -0.11621057
C      -0.98419362      1.24815989     -0.03606576
C      -2.31243846      0.78416139      0.04136996
C      -3.59702430      1.40441462      0.13179423
C      -3.89432165      2.85570817      0.17045800
C      -4.50675073      0.36824149      0.17531632
O      -3.88047007     -0.83263007      0.11894593
C      -2.54208621     -0.58875359      0.03696016
C      -1.54504167     -1.56725830     -0.04093472
C      -1.82081348     -3.03714452     -0.04742002
C      -0.23826110     -1.05247498     -0.11802377
O       0.81992102     -1.98983931     -0.21084297
C       2.15604413     -1.61438608     -0.33806782
O       3.02502626     -2.45806552     -0.52281737
H       6.60472810     -0.73565298      0.94477046
H       6.40339664      0.09525015     -0.61100390
H       6.08873961      0.96331249      0.93582902
H       1.65435290      1.80199102     -0.14401443
H      -0.78195091      2.31524718     -0.03228647
H      -3.41294953      3.32191948      1.03605519
H      -3.52585761      3.34601239     -0.73627607
H      -4.97109010      3.04039976      0.24156945
H      -5.58529477      0.32454595      0.24313548
H      -1.45422137     -3.48688788     -0.97567938
H      -1.32757082     -3.51867526      0.80298471
H      -2.89266598     -3.24595266      0.02546064
