18
O=[N+]([O-])c1cccc(S(=O)(=O)[O-])c1.[Na+]
O      -3.50662965     -1.13922325     -0.27090048
N      -2.31509771     -1.47969651     -0.35296129
O      -1.93804925     -2.59344425     -0.74337950
C      -1.29858164     -0.49590409      0.03643445
C      -1.70282865      0.78719834      0.44696869
C      -0.74457277      1.73278153      0.82118131
C       0.60933969      1.40081403      0.78570651
C       0.99686509      0.12149558      0.37268310
S       2.74836624     -0.33611364      0.32976651
O       2.75574561     -1.55710709      1.12903677
O       3.41239281      0.81334341      0.93721938
O       2.96786100     -0.50700711     -1.10240051
C       0.05343716     -0.84006375     -0.00323395
Na      0.00000000      0.00000000      0.00000000
H      -2.75431938      1.06249304      0.48046885
H      -1.04762799      2.72617079      1.14077489
H       1.36462213      2.12809846      1.07569390
H       0.39907732     -1.82383548     -0.31378646
