45
CN(C)C(=O)COC(=O)C1CCn2c(C(=O)c3ccccc3)ccc21
C       6.09241240     -1.74952384     -0.65029227
N       5.96778893     -0.36609558     -1.08047890
C       7.11905564      0.48709459     -0.83485968
C       4.74413363      0.24891174     -1.34962703
O       4.64854778      1.46474946     -1.53905385
C       3.50578128     -0.65776728     -1.43453387
O       2.29293251      0.08474825     -1.56483141
C       1.88118318      0.67659666     -0.40469220
O       2.40885899      0.50802931      0.68853792
C       0.67361415      1.56041157     -0.66687213
C       0.36869406      2.49298314      0.53940048
C      -0.65513732      1.73387176      1.40383297
N      -1.27768601      0.85133622      0.42969415
C      -2.42527875      0.12394373      0.39743307
C      -3.36749081      0.04625459      1.49995943
O      -3.08593295      0.40814071      2.64143224
C      -4.73361399     -0.49613368      1.27475113
C      -5.28271957     -1.35033251      2.23922876
C      -6.56954503     -1.86242174      2.06754464
C      -7.31447193     -1.51233947      0.94122828
C      -6.77973650     -0.64374490     -0.01088081
C      -5.49262878     -0.12898715      0.15649672
C      -2.41109591     -0.49975175     -0.85229338
C      -1.24302583     -0.09629626     -1.56809498
C      -0.56594010      0.74245088     -0.72804446
H       7.08834940     -2.12390653     -0.90454350
H       5.94611517     -1.79309823      0.43277508
H       5.35349108     -2.38663747     -1.14044014
H       7.00712978      1.46664082     -1.30731829
H       7.22787704      0.62447456      0.24510424
H       8.01587559      0.00729903     -1.23748136
H       3.44390718     -1.32536745     -0.56843585
H       3.60185941     -1.27255332     -2.33548506
H       0.84651967      2.15860064     -1.56689351
H       1.25279617      2.78940689      1.11232628
H      -0.10122726      3.41260045      0.16485282
H      -1.40737994      2.39523460      1.83937095
H      -0.17962710      1.10644344      2.16300400
H      -4.70833513     -1.61605174      3.12433546
H      -6.99262878     -2.52891811      2.81507057
H      -8.31857639     -1.90910346      0.81078912
H      -7.36978878     -0.36061406     -0.87923471
H      -5.09951360      0.56803685     -0.57929661
H      -3.15987004     -1.19029766     -1.22048068
H      -0.94567254     -0.40165058     -2.56300364
