40
Cc1ccccc1N1C(=O)c2cc(S(N)(=O)=O)c(Cl)cc2NC1C
C       3.12074469     -0.21609500     -2.33422396
C       3.30984794      0.58422354     -1.07305599
C       4.55278926      1.21678670     -0.88548459
C       4.77846376      2.04518267      0.21247894
C       3.76387626      2.25686055      1.13783387
C       2.53194411      1.62091853      0.97796059
C       2.29641828      0.76006748     -0.10655642
N       1.05064816      0.06180682     -0.20051751
C      -0.15633621      0.71412227      0.06506075
O      -0.28617690      1.90883876      0.32260152
C      -1.38693606     -0.10810949     -0.05161742
C      -2.64226256      0.46220962      0.19842431
C      -3.80162110     -0.30015812      0.01472319
S      -5.38582462      0.40321383      0.32906475
N      -5.07151371      1.97633063      0.83539207
O      -5.95411044     -0.24577948      1.48672829
O      -6.08452568      0.55383893     -0.92478315
C      -3.70388415     -1.61886925     -0.43342267
Cl     -5.07089240     -2.63608658     -0.71326581
C      -2.44053556     -2.17515236     -0.68127418
C      -1.27074369     -1.44034305     -0.45761032
N      -0.02383272     -1.99593125     -0.76331723
C       1.11047455     -1.39056768     -0.07190594
C       1.16462369     -1.85420977      1.39018086
H       2.06747530     -0.27592386     -2.62468116
H       3.51954484     -1.22673182     -2.20563073
H       3.64483226      0.25871342     -3.17140845
H       5.34858156      1.08558515     -1.61641445
H       5.73905184      2.53884081      0.33444286
H       3.92692080      2.91508513      1.98709247
H       1.76319896      1.79127640      1.72811655
H      -2.69551153      1.50105724      0.51629896
H      -5.47903485      2.63508588      0.16912479
H      -5.41402427      2.10136133      1.78947402
H      -2.37121202     -3.19617334     -1.05109885
H      -0.01305343     -3.01140580     -0.72466194
H       2.01114505     -1.77116566     -0.56053684
H       0.30294027     -1.50616125      1.96975984
H       1.18342426     -2.94797515      1.44892777
H       2.06508607     -1.47456678      1.88459591
