19
O=C(O)C(=O)Nc1ccccc1
O       3.51226296     -1.51375023     -0.55405840
C       3.41533958     -0.33533915     -0.26697569
O       4.42752034      0.53961468     -0.12891107
C       2.05800050      0.34365849     -0.01141940
O       2.08218735      1.53496166      0.27033984
N       0.99732992     -0.52252555     -0.14404120
C      -0.36924255     -0.23872995      0.01812784
C      -1.27015512     -1.29416974     -0.17057827
C      -2.64484659     -1.09045460     -0.02689622
C      -3.13012136      0.17094996      0.30682271
C      -2.24072673      1.22612711      0.49626161
C      -0.86440496      1.02300711      0.35261041
H       4.05042214      1.42096817      0.10689899
H       1.25222651     -1.47744474     -0.38888717
H      -0.91727087     -2.28878246     -0.43165438
H      -3.33550392     -1.91659796     -0.17561162
H      -4.19909308      0.33267340      0.41934008
H      -2.61588967      2.21279296      0.75698620
H      -0.20803445      1.87304085      0.50938338
