33
Cc1cc(OC(=O)N(C)C)n(-c2ccccc2)n1
C       1.89906645      4.02054175      1.27941916
C       1.31427247      2.71698197      0.88560825
C       0.08559519      2.47457164      0.25224026
C      -0.01186282      1.10274665      0.12010041
O      -0.98810026      0.31406814     -0.31198592
C      -1.98806152      0.78407105     -1.09925806
O      -2.01746684      1.90006979     -1.60950554
N      -2.99362480     -0.15786510     -1.29763024
C      -4.04622609      0.12076526     -2.25660339
C      -2.94261117     -1.50386601     -0.75375084
N       1.18229209      0.58928309      0.63355311
C       1.65824399     -0.76042256      0.67945143
C       1.02883671     -1.80217502     -0.01364043
C       1.53123139     -3.10640490      0.06043376
C       2.66630022     -3.38206072      0.81921731
C       3.30943672     -2.35330965      1.50082822
C       2.81279076     -1.04942241      1.42885390
N       1.96228761      1.58333691      1.15096996
H       1.27035668      4.85244354      0.94611655
H       1.99631342      4.08392596      2.36798975
H       2.89120330      4.14769180      0.83435536
H      -0.65244952      3.20823037     -0.04149031
H      -3.89112136     -0.50892547     -3.13776910
H      -5.01289227     -0.11759758     -1.80333138
H      -4.05387965      1.16826880     -2.56834915
H      -2.55825666     -2.17615409     -1.52620472
H      -2.29939269     -1.56437270      0.12706708
H      -3.95113097     -1.81495174     -0.46576794
H       0.16740273     -1.63982776     -0.64925648
H       1.03969005     -3.90794374     -0.48559079
H       3.05468480     -4.39577145      0.87215314
H       4.20001508     -2.56065776      2.08862132
H       3.33705695     -0.26526805      1.97315528
