40
Cc1ccc(S(=O)(=O)NC(=O)NC2CCCCC2)cc1
C       5.76549602      1.97103088      0.00589819
C       4.56617041      1.30435694     -0.60181352
C       4.51833769     -0.09136374     -0.72047326
C       3.39346112     -0.71803532     -1.25921399
C       2.30020365      0.05272737     -1.65876571
S       0.88187243     -0.73422724     -2.37687515
O       1.25773416     -2.03553334     -2.88126581
O       0.24556670      0.23618955     -3.24680121
N      -0.15466270     -0.90572165     -1.09315569
C       0.06910438     -1.69815883      0.01437565
O       1.09396093     -2.34460529      0.18123853
N      -0.89556911     -1.74207977      0.97211533
C      -2.20703222     -1.11445144      1.08416928
C      -3.18777842     -1.57102075     -0.00310189
C      -4.56380541     -0.93525137      0.18569865
C      -4.47413017      0.58555471      0.27757135
C      -3.51893129      1.02676250      1.38308902
C      -2.13128835      0.41260217      1.20840444
C       2.33367513      1.44551186     -1.54706028
C       3.46271888      2.06644476     -1.00947012
H       5.90731492      2.97415484     -0.40981953
H       5.63911034      2.05153629      1.08988854
H       6.67701129      1.40136236     -0.20343375
H       5.35925290     -0.70090139     -0.39573764
H       3.37029500     -1.80263623     -1.34986193
H      -0.98768597     -0.34867307     -1.19367719
H      -0.62033469     -2.36009303      1.72650361
H      -2.59767830     -1.49002129      2.04044765
H      -3.28459972     -2.66342070      0.01855239
H      -2.81920541     -1.31728453     -1.00210909
H      -5.21673843     -1.21684924     -0.64814271
H      -5.02554217     -1.32949183      1.09935991
H      -5.47036751      1.00171049      0.46502099
H      -4.13332575      0.99047573     -0.68326994
H      -3.92789597      0.73250928      2.35755180
H      -3.43955800      2.11973518      1.38802217
H      -1.50187484      0.68482885      2.06456019
H      -1.65822864      0.86020973      0.32866208
H       1.49367881      2.05166951     -1.87750162
H       3.48126830      3.15044705     -0.91702946
