32
NC(=O)OCC1CSC2(CCCCC2)O1
N       5.59639939     -0.49867625      0.33728772
C       4.48320187      0.26019786      0.25156274
O       4.25692137      1.21191636      0.97887952
O       3.68643447     -0.20375715     -0.73405928
C       2.47828470      0.53658839     -0.97117091
C       1.28250609     -0.10089304     -0.26150116
C       1.32774764      0.06967220      1.25151112
S      -0.35957295     -0.32178567      1.74661654
C      -1.02904132      0.11461287      0.10061513
C      -1.71630521     -1.09644617     -0.55270834
C      -3.05867406     -1.45296871      0.08578072
C      -3.99160280     -0.24699113      0.14532553
C      -3.33887317      0.94623613      0.83702532
C      -1.99816374      1.30178926      0.19581421
O       0.07429319      0.52600957     -0.73049258
H       5.76857147     -1.21505665     -0.35080390
H       6.32206626     -0.22455157      0.98254361
H       2.58276248      1.59848212     -0.71428780
H       2.30525097      0.51762948     -2.05380580
H       1.25090781     -1.16809349     -0.52117327
H       2.05172151     -0.59227085      1.73279921
H       1.53041827      1.10611008      1.53765453
H      -1.05783345     -1.97438947     -0.55019028
H      -1.88218167     -0.87378848     -1.61615466
H      -3.53500040     -2.25348950     -0.49199781
H      -2.90352568     -1.84772500      1.09655654
H      -4.91343228     -0.51941555      0.67152174
H      -4.28005214      0.03841827     -0.87399065
H      -3.20279503      0.72499960      1.90193072
H      -4.00977829      1.81127489      0.78124742
H      -2.18628090      1.68540993     -0.81697548
H      -1.53437441      2.14095164      0.73060001
