29
COc1ccc(Cn2cc(F)c(=O)[nH]c2=O)cc1
C       4.80676447      0.58944483     -0.90437673
O       4.00614958      1.17607406      0.11406497
C       2.78991390      0.59824043      0.35265213
C       2.04095024      1.20978205      1.36022264
C       0.77813959      0.72358255      1.70811756
C       0.24390841     -0.39030145      1.04939589
C      -1.12833227     -0.91591521      1.40352844
N      -2.14202663     -0.52828025      0.42117832
C      -2.67493845      0.74860415      0.46125440
C      -3.57825802      1.15824222     -0.42816960
F      -4.10647102      2.39526689     -0.40338843
C      -4.03038929      0.23914310     -1.48889515
O      -4.85948492      0.55659508     -2.33364204
N      -3.45232128     -1.00329624     -1.45877869
C      -2.51235864     -1.44456634     -0.55915669
O      -2.05807494     -2.58211414     -0.65335928
C       0.99869627     -1.00051084      0.03773821
C       2.26318660     -0.51057619     -0.30806036
H       4.31067298      0.64702552     -1.87888844
H       5.06963296     -0.44365776     -0.65399919
H       5.73659919      1.16262017     -0.97014219
H       2.44705089      2.07493360      1.87921319
H       0.22167073      1.22343408      2.49721770
H      -1.44054392     -0.54946976      2.39007163
H      -1.08106454     -2.00827667      1.49135623
H      -2.32915025      1.41625358      1.24328783
H      -3.73178346     -1.65502916     -2.17536337
H       0.60511957     -1.86793670     -0.49088724
H       2.80674227     -1.01931158     -1.09714324
