21
CCC(O)C(C)C
C       2.82158658      0.15552176     -0.35787984
C       1.40798463     -0.28334317     -0.72218181
C       0.34883669      0.39541363      0.15705449
O       0.52822749     -0.05046936      1.49988067
C      -1.09294880      0.11427530     -0.32683064
C      -1.48516104     -1.36282482     -0.22574317
C      -2.10918354      0.95878817      0.45035024
H       3.06933204     -0.11371465      0.67359471
H       3.54827968     -0.33085301     -1.01639418
H       2.93609506      1.23851446     -0.46860707
H       1.35932678     -1.37202149     -0.60660454
H       1.22595583     -0.04803415     -1.77692711
H       0.52647926      1.47814159      0.14243554
H      -0.02175548      0.50769880      2.07445387
H      -1.16191097      0.41200698     -1.38127381
H      -1.42023640     -1.72823365      0.80440293
H      -2.51507159     -1.51209977     -0.56837221
H      -0.84304627     -1.98927422     -0.85190473
H      -1.85182966      2.02194446      0.40011515
H      -2.15884736      0.66802861      1.50467458
H      -3.11211294      0.84053454      0.02575724
