28
O=C(O)c1ccc(N=Nc2ccc(O)cc2)cc1Cl
O       5.86088974     -0.87545240     -1.69101984
C       5.34221222     -0.69194942     -0.60864977
O       6.06452379     -0.75791472      0.52658900
C       3.92166702     -0.38239527     -0.32507046
C       3.33675170     -0.89369587      0.84540249
C       1.99106112     -0.64612713      1.12987572
C       1.20560274      0.10348427      0.25113688
N      -0.13773865      0.35824377      0.57776792
N      -0.89898821     -0.12939901     -0.28678566
C      -2.24478730      0.11754316      0.04112657
C      -2.76019331      1.41880761      0.12082780
C      -4.10789054      1.63111851      0.41867080
C      -4.94496334      0.54149245      0.62749040
O      -6.25321289      0.79298490      0.91485734
C      -4.45856776     -0.75885995      0.54070212
C      -3.10862159     -0.96609844      0.24257672
C       1.79482582      0.62617560     -0.90698680
C       3.14300231      0.38378119     -1.20096812
Cl      3.77007609      1.11381519     -2.63594019
H       6.97504028     -0.94362992      0.21193023
H       3.92281659     -1.49182499      1.54060145
H       1.54810159     -1.04413351      2.04027916
H      -2.10685771      2.27015036     -0.04993062
H      -4.50158012      2.64140055      0.48432671
H      -6.71571706     -0.05287185      1.03303260
H      -5.10578493     -1.61582357      0.69709963
H      -2.72149255     -1.97910492      0.16769209
H       1.18982495      1.23028343     -1.57971408
