23
Oc1ccc2c(c1)CCCC2
O       3.87745723      0.89598136      0.36372545
C       2.63976511      0.32439540      0.32446828
C       2.47891366     -1.05528194      0.34269610
C       1.19255236     -1.59456153      0.29568081
C       0.06628055     -0.75902583      0.22488681
C       0.23992976      0.63768368      0.22807562
C       1.53755496      1.16926336      0.26521860
C      -0.93446836      1.57993832      0.13010683
C      -2.26754840      0.91894332      0.47547919
C      -2.40234277     -0.41629091     -0.24516514
C      -1.30884490     -1.38121729      0.20933193
H       4.54115595      0.18838953      0.40170124
H       3.33290571     -1.72253153      0.39305669
H       1.06892896     -2.67525024      0.31423763
H       1.69312912      2.24501405      0.24821394
H      -0.78281808      2.43607589      0.79830886
H      -0.97627315      1.96429645     -0.89679300
H      -3.09155984      1.58485464      0.19581512
H      -2.33608808      0.75980040      1.55915583
H      -3.38627302     -0.85577736     -0.04672362
H      -2.33361221     -0.25721760     -1.32883769
H      -1.53397265     -1.73141782      1.22455135
H      -1.31477193     -2.25606437     -0.45177238
