38
CN(C)CCCNCCCN(C)C
C       5.07208616      2.52166655     -0.33225005
N       4.13161946      1.39791462     -0.29549748
C       4.83337249      0.18356550      0.12708382
C       3.49290160      1.23452207     -1.61298276
C       2.32381550      0.23912263     -1.64048143
C       1.20558862      0.61748263     -0.66680214
N       0.08428051     -0.31635766     -0.81978644
C      -1.00832543      0.02229902      0.09415776
C      -2.15053699     -0.98581011     -0.06232376
C      -3.32389845     -0.62227175      0.85817164
N      -4.39299480     -1.63711576      0.87023377
C      -5.36684821     -1.32414643      1.91997607
C      -5.07648373     -1.73393978     -0.42145832
H       5.52188165      2.68087277      0.65426891
H       4.55205464      3.45115290     -0.58983662
H       5.87773185      2.36333895     -1.05836913
H       5.59510027     -0.12791992     -0.59651809
H       4.13489571     -0.64538752      0.27663673
H       5.32449487      0.34089793      1.09433199
H       3.09635420      2.20510904     -1.93977274
H       4.23465210      0.93362865     -2.36450081
H       2.68074138     -0.77681830     -1.43433512
H       1.92255264      0.21989649     -2.66243202
H       0.86900637      1.63907960     -0.87949271
H       1.57751251      0.58683748      0.36377524
H       0.40719436     -1.26427604     -0.62524936
H      -0.65172319      0.01253765      1.13115150
H      -1.37980358      1.02953075     -0.12880688
H      -1.79031120     -1.99405950      0.17922935
H      -2.47684170     -0.99572250     -1.10891912
H      -3.72538579      0.36076035      0.57827376
H      -2.92528421     -0.52414595      1.87651996
H      -4.88261064     -1.30404016      2.90291223
H      -6.14073922     -2.09816928      1.97136013
H      -5.85536486     -0.35686271      1.75521719
H      -4.40111227     -2.09735441     -1.20210637
H      -5.49583349     -0.77291903     -0.74051158
H      -5.89373913     -2.46289879     -0.37013527
