25
O=C(OCCCO)c1ccccc1
O      -0.16324424     -2.24427906      0.30809825
C      -0.44065055     -1.06728549      0.13787517
O       0.45342647     -0.06159352     -0.03380401
C       1.82391373     -0.48156533     -0.00255147
C       2.70142246      0.74344817     -0.20676342
C       4.17710609      0.38498833     -0.18718340
O       4.94006135      1.56765859     -0.38238125
C      -1.83388497     -0.54603567      0.09194950
C      -2.12349662      0.81136002     -0.10506648
C      -3.45034164      1.24768335     -0.13978540
C      -4.49168709      0.33419638      0.02146883
C      -4.21147246     -1.01732868      0.21782164
C      -2.88677921     -1.45744311      0.25315928
H       2.04163747     -0.94354356      0.96765141
H       2.00056891     -1.20935044     -0.80332786
H       2.48519307      1.49435585      0.56395052
H       2.44537117      1.23662132     -1.15324930
H       4.45982749     -0.05633905      0.77384339
H       4.41896603     -0.32080249     -0.98820581
H       5.87810705      1.31077113     -0.36557577
H      -1.32745397      1.54076330     -0.23300289
H      -3.67108206      2.30139794     -0.29281890
H      -5.52351498      0.67637087     -0.00596038
H      -5.02348149     -1.72935923      0.34352096
H      -2.67851201     -2.51468962      0.40701209
