19
CN(C)C1CSSC1
C      -1.41408250      1.30211749      0.46386446
N      -0.79359660     -0.02794779      0.41501155
C      -1.71384995     -0.95123830     -0.26110158
C       0.54681640      0.00597008     -0.24465929
C       1.22090561     -1.38610985     -0.28026734
S       2.91655956     -1.18321252     -0.89087284
S       3.17329269      0.74654560     -0.26997413
C       1.53268459      0.95754381      0.47375748
H      -2.41420587      1.24712871      0.90980492
H      -0.84597374      1.98289536      1.10501267
H      -1.50774566      1.74912847     -0.53225850
H      -1.37417406     -1.98759242     -0.17240543
H      -2.70339724     -0.92673447      0.21041571
H      -1.83458485     -0.70770433     -1.32268775
H       0.41030655      0.35696453     -1.27917350
H       0.70128218     -2.07713620     -0.94994096
H       1.25698877     -1.83620103      0.71813762
H       1.24458166      2.00679472      0.36396547
H       1.59819246      0.72878813      1.54337143
