41
COc1cccc(-c2cccc(C3(C)N=C(C)C(N)=N3)c2)c1
C       6.92835232      0.28061586      0.26661677
O       5.72493079     -0.13471976     -0.36622291
C       4.57259635      0.49159697      0.02405761
C       4.47417940      1.51130299      0.96882760
C       3.22818216      2.06178134      1.27310920
C       2.07770349      1.59550917      0.63357277
C       2.14823653      0.57110103     -0.32277724
C       0.93623272      0.07886217     -1.00154192
C       0.88125058     -0.02581793     -2.39963989
C      -0.26517127     -0.49676800     -3.04080651
C      -1.38182425     -0.86871983     -2.29337804
C      -1.37509081     -0.76923934     -0.89414865
C      -2.58499398     -1.19870882     -0.06232983
C      -2.41048073     -2.65765691      0.38096799
N      -3.85255383     -1.11560052     -0.84805316
C      -4.57292092     -0.29345741     -0.16298663
C      -5.94503994      0.15657221     -0.50648920
C      -3.88422894      0.17538430      1.06932799
N      -4.41050850      1.04820560      1.97188886
N      -2.71814409     -0.36231910      1.16895618
C      -0.20236406     -0.30206016     -0.26798155
C       3.41354553      0.03134637     -0.61211791
H       7.74653954     -0.31779008     -0.14561454
H       6.89184964      0.09600109      1.34537106
H       7.14447274      1.33236511      0.05178223
H       5.34447571      1.90025713      1.48584680
H       3.15158514      2.85806133      2.00895260
H       1.11839925      2.04668626      0.87959457
H       1.73681247      0.26818904     -3.00410463
H      -0.28797893     -0.57491097     -4.12440952
H      -2.26337449     -1.24234086     -2.81072296
H      -1.51256042     -2.78648029      0.99646514
H      -2.32756129     -3.33017678     -0.48081553
H      -3.26718714     -2.99255876      0.97770966
H      -6.63342583     -0.11394903      0.29834975
H      -5.95288620      1.24115689     -0.64212013
H      -6.27625938     -0.31968719     -1.43317716
H      -3.70584540      1.40901279      2.60839429
H      -5.01746589      1.77254851      1.60758102
H      -0.17591669     -0.24900609      0.82018228
H       3.50443861     -0.77458829     -1.33812186
