6
O=[PH]([O-])[O-].[Ca+2]
O       0.00246013      1.24728701     -0.90310295
P       0.00226184     -0.01688659     -0.04787519
O       1.30547492     -0.80839370     -0.11644843
O      -1.24965120     -0.87400815     -0.21402876
Ca      0.00000000      0.00000000      0.00000000
H      -0.06054569      0.45200143      1.28145533
