27
Nc1ccc2cc3ccc(N)cc3nc2c1
N       4.87023035     -0.94259933     -0.05572738
C       3.63629018     -0.28430799      0.01246233
C       3.56332315      1.09070756     -0.19824045
C       2.32499792      1.73034191     -0.24846806
C       1.14078010      0.98601316     -0.12960600
C      -0.11982293      1.59100915     -0.17276471
C      -1.27611376      0.81094934     -0.06552340
C      -2.55922947      1.37978696     -0.08925367
C      -3.68824943      0.56806735      0.01811947
C      -3.55345868     -0.81552401      0.10696585
N      -4.67728409     -1.61933606      0.33392358
C      -2.26657455     -1.35955791      0.18819057
C      -1.12120760     -0.57882497      0.08195052
N       0.08795086     -1.16780981      0.12680813
C       1.19571381     -0.41046478      0.02547186
C       2.44559821     -1.01751442      0.06992782
H       4.87490792     -1.85408985      0.39280916
H       5.66116422     -0.37130906      0.22441030
H       4.46983320      1.67652788     -0.32460746
H       2.29092657      2.80720301     -0.39398989
H      -0.20099471      2.66880754     -0.28979982
H      -2.68729550      2.45578767     -0.17750567
H      -4.67340848      1.02655175      0.03108964
H      -4.53976410     -2.59596782      0.09040752
H      -5.53947198     -1.24453821     -0.04894056
H      -2.14117720     -2.42957480      0.33328331
H       2.48233602     -2.10033426      0.15860700
