44
Cc1ccc(Nc2ccc(O)c3c2C(=O)c2ccccc2C3=O)c(S(=O)(=O)[O-])c1.[Na+]
C       6.29987623      0.21278400      0.63743149
C       4.88483847      0.35080588      0.16379321
C       4.59698525      0.50131216     -1.19655416
C       3.27658232      0.66420829     -1.62757802
C       2.21299233      0.70020806     -0.71201339
N       0.89030305      0.79959524     -1.23842107
C       0.03102035     -0.34929205     -1.27825892
C       0.53384062     -1.58338616     -1.72929899
C      -0.26079975     -2.73091818     -1.72956996
C      -1.56500490     -2.66405427     -1.25812403
O      -2.27711813     -3.83519135     -1.25921309
C      -2.09582872     -1.44558519     -0.81617573
C      -1.32381653     -0.27998269     -0.89165001
C      -1.97261588      1.01135789     -0.56856873
O      -1.59710948      2.06266147     -1.07620445
C      -3.15839034      1.00680775      0.30176899
C      -3.56750561      2.18163599      0.94006747
C      -4.71942257      2.17754792      1.72819943
C      -5.46591006      1.00616981      1.86944882
C      -5.05833378     -0.16546274      1.22759089
C      -3.89666901     -0.16275105      0.44697060
C      -3.45493010     -1.39143928     -0.23692499
O      -4.19275764     -2.37242149     -0.30499198
C       2.50675058      0.55156082      0.65426721
S       1.20552366      0.64891888      1.91508893
O       0.64093590     -0.69762201      1.90339706
O       0.32426825      1.69258315      1.39517726
O       1.92725542      1.01280080      3.13186856
C       3.83343178      0.39191772      1.08776997
Na      0.00000000      0.00000000      0.00000000
H       6.71967597      1.19951779      0.85572197
H       6.92051383     -0.27506441     -0.12153912
H       6.35063041     -0.40241051      1.54198299
H       5.39607621      0.49136877     -1.93283599
H       3.06531978      0.76909718     -2.68866770
H       0.40218743      1.49835009     -0.63927085
H       1.56556196     -1.66245609     -2.06045948
H       0.15145583     -3.67809042     -2.06391277
H      -3.16327622     -3.63903248     -0.87971878
H      -2.97524329      3.08930390      0.83536344
H      -5.02661451      3.08781646      2.23683085
H      -6.36011102      1.00376512      2.48742364
H      -5.63845248     -1.07771900      1.34516845
H       4.03388442      0.30078425      2.15376275
