24
COc1cc(OC)cc(OC)c1
C      -0.94643169      3.48896111     -0.71105158
O      -1.54416187      2.19936066     -0.65490634
C      -0.72524453      1.15283618     -0.32492293
C       0.63748947      1.23799498     -0.03998856
C       1.36784510      0.09057748      0.28527563
O       2.69407299      0.31371521      0.54229243
C       3.48243913     -0.82160096      0.87850733
C       0.72329882     -1.14578163      0.32349467
C      -0.64260604     -1.24341176      0.03966941
O      -1.14991764     -2.51307262      0.11264256
C      -2.53600325     -2.66736273     -0.16747200
C      -1.36079423     -0.09221133     -0.28348373
H      -0.16993370      3.53099568     -1.48198865
H      -0.55128585      3.78389238      0.26666835
H      -1.72591207      4.20653662     -0.98481882
H       1.16606117      2.18518596     -0.06168252
H       3.12744136     -1.28904546      1.80291560
H       4.50654070     -0.47730403      1.05207696
H       3.50886378     -1.54203101      0.05428682
H       1.25520495     -2.05825442      0.57148620
H      -2.78062681     -3.72923326     -0.06726491
H      -3.14829800     -2.11545700      0.55332858
H      -2.76676804     -2.36836103     -1.19528789
H      -2.42127377     -0.12692901     -0.50977663
