25
COP(=S)(OC)Oc1ccc(C#N)cc1
C      -2.94316605     -2.37097433     -0.46624587
O      -2.86651709     -0.95925266     -0.43886347
P      -1.68308074     -0.27018091      0.42991857
S      -1.71476588     -0.63401963      2.33641671
O      -1.84190448      1.27839127     -0.02046985
C      -3.02811964      1.96159879      0.33289847
O      -0.37577079     -0.73489328     -0.39840885
C       0.89730711     -0.26959201     -0.23290677
C       1.24660994      0.81879947      0.56291115
C       2.58633461      1.21303228      0.65836681
C       3.57860932      0.52274192     -0.04518008
C       4.94960466      0.93032702      0.05340304
N       6.05959735      1.26034932      0.13049645
C       3.22424187     -0.56467649     -0.84792831
C       1.88625907     -0.95632592     -0.94090162
H      -3.33372744     -2.74376083      0.48386890
H      -1.96276710     -2.81170256     -0.66534501
H      -3.62806445     -2.66647178     -1.26518044
H      -3.05905680      2.90861261     -0.21202339
H      -3.91120996      1.37562895      0.06531624
H      -3.03303543      2.17579498      1.40450432
H       0.50704575      1.38782914      1.11797528
H       2.84661816      2.06428351      1.28571378
H       3.98208908     -1.11265207     -1.40470991
H       1.61686895     -1.80288680     -1.56851915
