31
NCC(=O)NC(Cc1ccc(O)cc1)C(=O)O
N       2.07960574      1.75077668     -0.26344539
C       3.11589854      0.76297987      0.10504692
C       2.46460686     -0.53097618      0.60156589
O       3.03161598     -1.61987004      0.63432975
N       1.19340130     -0.37186130      1.09379632
C       0.24631689     -1.48920016      1.23138814
C      -1.20821639     -0.97615359      1.27966951
C      -1.59959443     -0.17384517      0.05577656
C      -1.85097922      1.20268302      0.16032381
C      -2.18404001      1.95179174     -0.97043840
C      -2.26836975      1.32228957     -2.20714198
O      -2.58619833      2.01548712     -3.33696143
C      -2.03092324     -0.04090787     -2.32924221
C      -1.70139826     -0.79070692     -1.19939306
C       0.50512668     -2.38088565      2.46441239
O      -0.38252687     -2.90742467      3.12469627
O       1.80732326     -2.65019687      2.71340733
H       2.54848444      2.61550446     -0.53868114
H       1.60593623      1.42572362     -1.11100722
H       3.74020897      1.16362075      0.90878944
H       3.73586756      0.53771260     -0.76744436
H       0.81428118      0.54663589      0.85844034
H       0.38114686     -2.13811031      0.35630520
H      -1.35331266     -0.36708704      2.18212212
H      -1.90975512     -1.81597544      1.36940390
H      -1.78680520      1.70360991      1.12449737
H      -2.37152669      3.01577760     -0.86571925
H      -2.80468231      2.92893400     -3.08940290
H      -2.10924617     -0.52070102     -3.30090522
H      -1.52910581     -1.85929139     -1.30877486
H       2.40685994     -2.31033319      2.00677675
