22
Clc1ccc(-c2ccc(Cl)c(Cl)c2Cl)cc1Cl
Cl      5.19660998      0.79690315      0.18643822
C       3.50083818      0.50531022      0.03695794
C       2.63584528      1.28624188      0.80705192
C       1.25362361      1.09558619      0.72396836
C       0.71528206      0.11933651     -0.12758998
C      -0.73893818     -0.07934723     -0.21892605
C      -1.43628761      0.55614645     -1.26020978
C      -2.81571427      0.40558939     -1.39528944
C      -3.52713033     -0.38480262     -0.49094340
Cl     -5.23540642     -0.51278993     -0.73533579
C      -2.86087177     -1.03413029      0.55876596
Cl     -3.75622411     -2.01682494      1.67941311
C      -1.46609468     -0.88062894      0.69248296
Cl     -0.61113104     -1.68387842      1.98134545
C       1.59327680     -0.65833853     -0.89915978
C       2.97811187     -0.46930235     -0.81850545
Cl      3.98257322     -1.47067108     -1.80564619
H       3.03120242      2.04584749      1.47776601
H       0.59746707      1.71292420      1.33595551
H      -0.90121207      1.17967824     -1.97650078
H      -3.33109086      0.90981638     -2.21061225
H       1.19527085     -1.42266578     -1.56457616
