12
OC(CI)CI
O      -0.18688342      1.25379719     -1.03913642
C      -0.00520019      0.44341609      0.12552471
C      -1.00537518     -0.72114919      0.14426903
I      -3.00408967      0.01520288      0.55510141
C       1.46243439     -0.00378587      0.21560366
I       2.09580599     -1.28763462     -1.38735039
H      -1.12472641      1.51760207     -1.06879080
H      -0.18570842      1.09725870      0.98804436
H      -0.74339826     -1.44728028      0.92093723
H      -1.04345230     -1.23206836     -0.82291986
H       2.10773722      0.88242141      0.20045042
H       1.63285625     -0.51778003      1.16826665
