20
CCCCCC
C       3.16520257      0.27402123      0.10183664
C       1.87143668     -0.51797591     -0.00029963
C       0.64964634      0.40024462      0.01891700
C      -0.64964612     -0.40024280     -0.08400808
C      -1.87143725      0.51797662     -0.06479252
C      -3.16520248     -0.27402239     -0.16692552
H       3.26565558      0.97112623     -0.73619091
H       4.02573993     -0.40210429      0.08625914
H       3.20117266      0.84829440      1.03310094
H       1.88154270     -1.10526192     -0.92587960
H       1.81741469     -1.22741639      0.83365545
H       0.71071653      1.11049496     -0.81468906
H       0.64659259      0.98834948      0.94477219
H      -0.71071595     -1.11049324      0.74959788
H      -0.64659178     -0.98834798     -1.00986289
H      -1.88154287      1.10526525      0.86078595
H      -1.81741654      1.22741456     -0.89874994
H      -3.26565306     -0.97112810      0.67110187
H      -4.02574043      0.40210178     -0.15134688
H      -3.20117377     -0.84829611     -1.09818902
