29
NS(=O)(=O)c1nnc(NS(=O)(=O)c2ccc([N+](=O)[O-])cc2)s1
N       5.43427418      1.81256378      1.22702946
S       5.24638098      0.22735501      0.68913630
O       5.57727642     -0.60988064      1.82026253
O       5.96722311      0.14993265     -0.56195053
C       3.55872588     -0.08002853      0.31177691
N       2.57351023      0.79328207      0.37525752
N       1.37324810      0.21670921      0.00023802
C       1.51769266     -1.05421069     -0.29697874
N       0.41172379     -1.86517996     -0.74959064
S      -0.76936850     -2.08097167      0.42526194
O      -0.24819154     -1.77218982      1.73789181
O      -1.34888528     -3.37992225      0.15046334
C      -1.97471292     -0.85386848     -0.02324814
C      -1.91145027      0.41785301      0.55849001
C      -2.87124523      1.37876319      0.22978421
C      -3.89573243      1.05353566     -0.67128940
N      -4.90615522      2.06165336     -1.01921102
O      -5.77380935      1.74497138     -1.84539950
O      -4.83059955      3.16837027     -0.46744833
C      -3.96737726     -0.22689011     -1.24148183
C      -3.00488740     -1.18505663     -0.91132485
S       3.11644312     -1.64466132     -0.21407860
H       6.07890079      2.31009706      0.61142060
H       5.73954100      1.81043902      2.20136254
H       0.66228082     -2.75657604     -1.17139925
H      -1.11751840      0.66982528      1.26086299
H      -2.80660449      2.36710774      0.68184844
H      -4.76324479     -0.49213082     -1.93546965
H      -3.06743846     -2.18089172     -1.34655011
