22
O=[N+]([O-])c1cc(CCO)ccc1O
O       2.28307606      2.70671215     -0.49082628
N       2.67062532      1.57722522     -0.16232712
O       3.84163289      1.29829431      0.14352281
C       1.68741280      0.49192107     -0.12665391
C       0.35744264      0.76968101     -0.48930620
C      -0.60783136     -0.24883082     -0.47014132
C      -2.04116850      0.04264352     -0.85655489
C      -2.96609981      0.17136454      0.35324128
O      -2.68663817      1.36009944      1.08509721
C      -0.22705943     -1.53935302     -0.07878304
C       1.09409481     -1.81184582      0.28448339
C       2.05551168     -0.80242804      0.26185488
O       3.31308932     -1.18984740      0.63689357
H       0.06286659      1.77487363     -0.79060231
H      -2.39717853     -0.76423529     -1.50872407
H      -2.07685453      0.96523069     -1.44901336
H      -4.00432795      0.23826212      0.01312243
H      -2.88849941     -0.68553053      1.03060840
H      -1.81836816      1.24117924      1.50805116
H      -0.95648233     -2.34754045     -0.05743683
H       1.37594636     -2.81917694      0.58428753
H       3.92880972     -0.42869861      0.57920668
