47
C=C1C[C@]23C[C@@]1(O)CC[C@H]2[C@@]12C=C[C@H](O)C(C)(C(=O)O1)[C@H]2[C@@H]3C(=O)O
C       4.38866650      0.20360437      1.33238461
C       3.25443671     -0.17038271      0.72443392
C       1.91186094     -0.25672461      1.40737583
C       0.94514697     -0.46876078      0.21549162
C       1.79607603     -1.39577751     -0.66757073
C       3.10666008     -0.60372086     -0.72396978
O       4.18853552     -1.41438200     -1.13127137
C       2.96551935      0.61452068     -1.65235323
C       1.51859002      1.10997146     -1.77995343
C       0.69022633      0.91037677     -0.50060015
C      -0.82372900      0.96334682     -0.72283000
C      -1.45614813      2.32677449     -0.83870673
C      -2.75660896      2.47664959     -0.52186470
C      -3.59861562      1.29225938     -0.08781453
O      -4.03995234      1.56069194      1.23851013
C      -2.81059992     -0.04924282     -0.10891629
C      -3.56638198     -1.19573788      0.54888575
C      -2.48811415     -0.33515164     -1.56433519
O      -3.18474612     -0.93948706     -2.36133723
O      -1.25715633      0.20426327     -1.86290208
C      -1.39952457      0.17398190      0.44641586
C      -0.45232734     -1.04019695      0.55405661
C      -0.54178415     -1.70103877      1.90875069
O      -0.88850127     -1.18547620      2.95600202
O      -0.15395767     -2.98912769      1.86990307
H       5.32863973      0.24148988      0.78834679
H       4.40384017      0.48821223      2.37981994
H       1.67639163      0.63913131      1.99035663
H       1.92935044     -1.12170126      2.07935449
H       1.93992601     -2.38246023     -0.20649797
H       1.36621859     -1.57579981     -1.65936825
H       4.38938899     -2.01879657     -0.39671619
H       3.60153661      1.43689409     -1.29941071
H       3.34175633      0.37196089     -2.65475771
H       1.51226928      2.16610153     -2.07456147
H       1.05735531      0.56898611     -2.61543624
H       0.95519543      1.72020226      0.19448796
H      -0.86707747      3.16288351     -1.20223386
H      -3.23414283      3.44777607     -0.61201209
H      -4.48218140      1.22201190     -0.73383375
H      -4.55732144      2.38368099      1.21668104
H      -3.63008729     -1.06262973      1.63371948
H      -3.09138883     -2.16287356      0.35241986
H      -4.58789429     -1.26292037      0.15746240
H      -1.40426031      0.74733828      1.38307880
H      -0.73623232     -1.79504631     -0.19123507
H      -0.25885328     -3.30567442      2.79255129
