13
CC(=O)OC(C)=O
C      -2.20559842     -0.58963477      0.59624419
C      -1.14321668      0.46356399      0.46177995
O      -1.34859532      1.64302286      0.70085573
O       0.00578755     -0.13142063      0.04919353
C       1.09369582      0.66095466     -0.13258040
C       2.24025391     -0.19732004     -0.58505407
O       1.19400590      1.86738661      0.02528127
H      -2.38075761     -1.06590693     -0.37181646
H      -3.13841291     -0.12467626      0.92841423
H      -1.90233337     -1.32980948      1.34111271
H       2.46927512     -0.94404850      0.17953948
H       1.99084377     -0.68014139     -1.53338714
H       3.12505225      0.42802989     -0.73583763
