30
CCC(CC)COC(=O)NS(N)(=O)=O
C      -2.28959072     -1.93728326      0.62013144
C      -2.24453151     -0.61465200     -0.13346816
C      -1.69781504      0.56277096      0.70298557
C      -1.66893486      1.86726874     -0.12607534
C      -3.04755193      2.36224249     -0.54197473
C      -0.29252005      0.28446104      1.27124340
O       0.61474749     -0.01242935      0.20192795
C       1.88088633     -0.28864262      0.60224832
O       2.26301266     -0.29900914      1.76224656
N       2.69021486     -0.57269360     -0.48362748
S       4.32211989     -0.59441792     -0.42427227
N       4.58875757     -1.75415496      0.73532883
O       4.79600816      0.65403873      0.11289696
O       4.80304814     -1.11694436     -1.67704667
H      -2.82968659     -1.83283446      1.56628772
H      -1.28486418     -2.31521390      0.83048439
H      -2.80406727     -2.69346695      0.01817368
H      -3.26695518     -0.38774057     -0.45562970
H      -1.64976181     -0.74291023     -1.04581348
H      -2.36902292      0.71898626      1.55804119
H      -1.05185735      1.73513810     -1.02306032
H      -1.19468846      2.65814521      0.46852701
H      -2.96454739      3.34750605     -1.01234660
H      -3.71011765      2.45599977      0.32405953
H      -3.51531517      1.69172262     -1.26826717
H      -0.32628892     -0.55835318      1.97120939
H       0.06723265      1.16552617      1.81736410
H       2.30573241     -0.39028766     -1.40178873
H       4.29955974     -1.38622819      1.64657731
H       5.57679709     -2.00654378      0.74490292
