20
CC(N)c1ccccc1
C      -2.21888237      0.30353755      1.08921532
C      -1.44708247      0.51872545     -0.21400951
N      -2.06130701     -0.26423656     -1.28843996
C       0.03073419      0.19507277     -0.09745057
C       0.98093501      1.10660333     -0.58638187
C       2.34690436      0.82661447     -0.50956383
C       2.78303454     -0.37154132      0.05029074
C       1.85424751     -1.29178365      0.53009587
C       0.48765240     -1.01308323      0.45382561
H      -2.24735669     -0.74950729      1.39031522
H      -3.25590152      0.64262280      0.98437771
H      -1.76405846      0.87152298      1.90862620
H      -1.55670045      1.57852801     -0.47590216
H      -1.52132138     -0.11724857     -2.14095677
H      -1.96476123     -1.25514313     -1.07318757
H       0.66140726      2.04640625     -1.03221406
H       3.07002451      1.54419089     -0.88850348
H       3.84603051     -0.58942084      0.10993461
H       2.19317706     -2.22954241      0.96281497
H      -0.21677577     -1.75231750      0.82711354
