30
N#CC(=C1CCCCC1)c1ccccc1
N      -0.27331643     -1.33702006     -3.56659598
C      -0.30017218     -0.82732439     -2.52374437
C      -0.32222059     -0.19749514     -1.23678062
C       0.81075847      0.21277203     -0.61429595
C       0.84978387      0.88198394      0.74949325
C       1.74479664      0.10046314      1.71268890
C       3.14823052     -0.10208615      1.14415535
C       3.10434330     -0.73917444     -0.24367580
C       2.20342321      0.04404180     -1.20016341
C      -1.64842290     -0.01874283     -0.61669162
C      -2.17704527     -1.01177183      0.21966763
C      -3.43048568     -0.83949775      0.80936136
C      -4.16179334      0.32286086      0.56782181
C      -3.64278481      1.31519534     -0.26297953
C      -2.38960863      1.14683583     -0.85451179
H      -0.13906835      0.98817991      1.20457394
H       1.24052254      1.90042433      0.62782702
H       1.29236714     -0.87681813      1.92407186
H       1.81124118      0.63455019      2.66745394
H       3.65945982      0.86666694      1.08363189
H       3.73518994     -0.73162646      1.82224710
H       4.11923817     -0.79052447     -0.65427968
H       2.74132366     -1.77141124     -0.15919609
H       2.19897576     -0.46517814     -2.16863646
H       2.63126548      1.03893263     -1.37835599
H      -1.61712574     -1.92339569      0.41697119
H      -3.83764347     -1.61289241      1.45586149
H      -5.13888939      0.45469579      1.02615825
H      -4.21540662      2.21985417     -0.45166058
H      -1.99693631      1.92917354     -1.50041710
