11
[C-]#[O+].[C-]#[O+].[C-]#[O+].[C-]#[O+].[C-]#[O+].[Fe]
C       0.55906995      0.00000000      0.00000000
O      -0.55906995      0.00000000      0.00000000
C       0.56667057      0.00000000      0.00000000
O      -0.56667057      0.00000000      0.00000000
C       0.56384348      0.00000000      0.00000000
O      -0.56384348      0.00000000      0.00000000
C       0.56228282      0.00000000      0.00000000
O      -0.56228282      0.00000000      0.00000000
C       0.56504405      0.00000000      0.00000000
O      -0.56504405      0.00000000      0.00000000
Fe      0.00000000      0.00000000      0.00000000
