47
CCCCOC(=O)[C@@H](C)Oc1ccc(Oc2ccc(C(F)(F)F)cn2)cc1
C      -7.23987455      0.35294644      1.77652999
C      -6.67147453     -0.55187022      0.69473587
C      -6.06766016      0.21381870     -0.48609853
C      -4.87892456      1.10342780     -0.12439572
O      -3.86078367      0.36258175      0.56489295
C      -2.98133751     -0.32150725     -0.22847428
O      -3.00827183     -0.32509532     -1.45158512
C      -1.95994105     -1.05557773      0.64904016
C      -2.66811967     -2.20332520      1.36568510
O      -0.89161593     -1.64445170     -0.08967357
C       0.17174974     -0.85803390     -0.43584329
C       0.23596508      0.53364010     -0.34342261
C       1.39501563      1.21053419     -0.73867313
C       2.49336362      0.49648533     -1.21389423
O       3.58552298      1.20780030     -1.64554677
C       4.79116380      0.96922699     -0.99506215
C       5.93255806      1.41635432     -1.64314142
C       7.16411687      1.22891319     -1.01977505
C       7.21905497      0.60392928      0.23043439
C       8.50553938      0.39259351      0.96630856
F       8.52542591     -0.76445612      1.68389440
F       9.58955089      0.33684451      0.14322477
F       8.76349660      1.38932919      1.85619783
C       6.01770566      0.21004688      0.80403445
N       4.80928940      0.37977261      0.22192792
C       2.42719695     -0.88994612     -1.33888470
C       1.26846075     -1.56168681     -0.94470267
H      -7.97100623      1.05274277      1.35969686
H      -7.74299524     -0.24692034      2.54173583
H      -6.45233877      0.92804447      2.27226230
H      -7.47766317     -1.19140135      0.31558038
H      -5.92382684     -1.22095457      1.13527008
H      -6.84138911      0.82681892     -0.96311322
H      -5.74669698     -0.52622039     -1.22898557
H      -5.19520416      1.91130886      0.54341609
H      -4.46944671      1.58889836     -1.01854190
H      -1.56760936     -0.36691858      1.40764336
H      -3.09884456     -2.90717700      0.64406244
H      -1.95864185     -2.76926987      1.97911449
H      -3.47491058     -1.84237045      2.01120030
H      -0.59604585      1.12923553      0.01391247
H       1.43972962      2.29394276     -0.67409968
H       5.86284748      1.89985207     -2.61145062
H       8.07420308      1.57081121     -1.50904609
H       5.98498098     -0.26939309      1.78066387
H       3.26837179     -1.44934381     -1.73594707
H       1.21931364     -2.64398024     -1.03511904
