29
O=C1NCc2cc(C#Cc3ccccc3)ccc21
O       5.78830493     -1.67483735      0.73466875
C       5.05016726     -0.83618787      0.26059934
N       5.41523050      0.31535205     -0.40206504
C       4.28609296      1.09940889     -0.84153678
C       3.12747291      0.28873597     -0.36736151
C       1.76905697      0.52594801     -0.49167535
C       0.88098021     -0.41271817      0.05350858
C      -0.52917298     -0.19824914     -0.05734046
C      -1.71319301     -0.01748759     -0.15080710
C      -3.12268595      0.19787623     -0.26217628
C      -3.80340610      0.90411142      0.73236483
C      -5.17950888      1.11422345      0.62281459
C      -5.87537566      0.61891203     -0.47992762
C      -5.19733995     -0.08672484     -1.47388336
C      -3.82124880     -0.29761766     -1.36569572
C       1.35989669     -1.56568154      0.70980937
C       2.73238956     -1.79845677      0.83146227
C       3.58371011     -0.85770912      0.28539808
H       6.38825971      0.55027462     -0.54489397
H       4.31613831      1.18399477     -1.93073340
H       4.32946530      2.08142818     -0.36387181
H       1.40050904      1.41372583     -0.99702624
H      -3.26870572      1.29287977      1.59557426
H      -5.70817310      1.66340612      1.39764789
H      -6.94683398      0.78232891     -0.56441774
H      -5.73989777     -0.47329373     -2.33274866
H      -3.30051297     -0.84937690     -2.14452279
H       0.65839319     -2.28522836      1.12790399
H       3.11998721     -2.67903722      1.33252870
