36
NCCCCC(NC(=O)c1ccccc1)C(=O)O
N       4.86814100      0.81972816      2.33221534
C       3.66211614      1.17664996      1.59380350
C       3.23942963      0.04900640      0.65259155
C       1.97123789      0.42029034     -0.12105202
C       1.54835034     -0.71192041     -1.06651411
C       0.27302962     -0.40940444     -1.86661255
N      -0.87511815     -0.14272560     -0.99997632
C      -1.55465954     -1.15698510     -0.36547100
O      -1.22628332     -2.33490645     -0.44939997
C      -2.75623748     -0.76256576      0.42161922
C      -3.75872501     -1.71935318      0.62680497
C      -4.90164274     -1.39476310      1.35964023
C      -5.04395058     -0.11666268      1.89810720
C      -4.04241162      0.83607778      1.71171833
C      -2.89704966      0.51570971      0.97826897
C       0.45838736      0.78335764     -2.80332967
O      -0.16505991      1.83498702     -2.75399127
O       1.39649933      0.58816627     -3.74987004
H       4.69985121     -0.03190039      2.86746310
H       5.61589225      0.59242724      1.67760741
H       3.85265621      2.09329051      1.02522252
H       2.86071213      1.39614338      2.30753103
H       3.06046825     -0.86780897      1.22835581
H       4.04923096     -0.16695385     -0.05566625
H       2.15225454      1.33757833     -0.69330928
H       1.16550137      0.63511108      0.59067139
H       1.39791768     -1.62514926     -0.47758273
H       2.37129281     -0.92182215     -1.76121471
H       0.01494480     -1.27376411     -2.49082527
H      -1.29624173      0.77732726     -1.07839870
H      -3.65120957     -2.72042980      0.21349748
H      -5.67770997     -2.14062265      1.51251778
H      -5.93308241      0.13440146      2.47160807
H      -4.15031114      1.82716278      2.14606278
H      -2.11804317      1.26523724      0.87519055
H       1.38982245      1.41508533     -4.27663036
