54
CCCOC(=O)N1C2CN3C4=C(C(=O)C(N)=C(C)C4=O)C(COC(N)=O)C3(OC)C21
C       4.03245917      1.00115455      3.45709792
C       4.88975881     -0.03075260      2.73723075
C       5.04132259      0.27792896      1.25032215
O       3.75664561      0.28603693      0.61162288
C       3.37092991     -0.87348692      0.02033062
O       4.03736794     -1.90065852     -0.02075758
N       2.10602362     -0.72068541     -0.52013373
C       1.77634495     -1.31542815     -1.78318557
C       0.69042859     -0.72331564     -2.63116326
N      -0.52821398     -0.76215483     -1.78544196
C      -1.09330716      0.43884957     -1.33778007
C      -1.27042717      0.45943178     -0.01949297
C      -1.68154107      1.66609351      0.68900820
O      -1.60191100      1.74920637      1.91138012
C      -2.13499735      2.84106638     -0.14930051
N      -2.65153444      3.90913873      0.57507281
C      -1.97908501      2.81276026     -1.48849737
C      -2.38714180      3.92037852     -2.41611699
C      -1.37647345      1.62830029     -2.18011997
O      -1.12644954      1.64686786     -3.38247873
C      -0.85494112     -0.83000210      0.62931500
C      -2.00688203     -1.49945211      1.39546598
O      -3.09658355     -1.91124887      0.54899049
C      -4.16677477     -1.09857652      0.46721399
N      -5.08271949     -1.63517207     -0.36753492
O      -4.31546062     -0.02571354      1.02517376
C      -0.29775990     -1.64490931     -0.59487026
O      -0.92937314     -2.91691425     -0.70605073
C      -0.93378704     -3.51630152     -1.99021259
C       1.19563021     -1.83569287     -0.53670954
H       3.99409857      0.78271170      4.52975851
H       3.00585917      1.00263065      3.07722901
H       4.44595640      2.00715628      3.33345603
H       5.88204466     -0.06500388      3.20133174
H       4.42922985     -1.01629517      2.86407857
H       5.72384051     -0.44095747      0.77958051
H       5.48136383      1.27134011      1.10712128
H       2.56171677     -1.83793878     -2.30565607
H       0.52665428     -1.33523013     -3.52302422
H       0.96805451      0.28844594     -2.94524860
H      -2.38634831      4.82127221      0.21866684
H      -2.43884985      3.80279209      1.57204501
H      -3.05728292      3.53972643     -3.19451332
H      -1.50599197      4.35593138     -2.89911261
H      -2.91921803      4.72990054     -1.90863692
H      -0.04739765     -0.62000141      1.34265776
H      -1.62876124     -2.41199137      1.87194920
H      -2.36654477     -0.86132157      2.21293948
H      -5.90231845     -1.09394902     -0.59945785
H      -4.83853754     -2.45522904     -0.89996917
H      -1.38699549     -4.50824465     -1.89700096
H      -1.54274968     -2.93887777     -2.69208250
H       0.08160361     -3.64627463     -2.37409315
H       1.53902598     -2.76734092     -0.10724580
