30
OC1COC(Oc2ccccc2)C(O)C1O
O       4.11087727     -1.14999582      0.97372330
C       3.08635592     -0.53051537      0.19336762
C       1.93492782     -1.50565911     -0.04032725
O       0.84883175     -0.88581139     -0.72981814
C       0.28869369      0.20561820      0.00917488
O      -0.77889760      0.82535652     -0.72127826
C      -2.00446072      0.22222054     -0.66737048
C      -2.24373185     -1.11014229     -0.32992067
C      -3.55046550     -1.60738338     -0.31802680
C      -4.62041145     -0.77832745     -0.65051124
C      -4.38511464      0.54807193     -1.00367713
C      -3.08010956      1.04330812     -1.01632540
C       1.35606955      1.30333782      0.21650986
O       1.80450010      1.85424247     -1.04302924
C       2.57606606      0.71732439      0.92283060
O       3.63601793      1.68594102      0.97184244
H       4.72175033     -0.42674125      1.22080866
H       3.53523245     -0.24470260     -0.76548753
H       2.28287385     -2.35065492     -0.64452578
H       1.57629634     -1.93341393      0.90441080
H      -0.06516692     -0.14038720      0.99064114
H      -1.43476552     -1.79437353     -0.09543483
H      -3.73123979     -2.64763227     -0.05875371
H      -5.63476737     -1.16880083     -0.64393875
H      -5.21481454      1.19616287     -1.27311958
H      -2.90264434      2.07829973     -1.29740475
H       0.94364185      2.14753034      0.77966618
H       1.02715215      1.82187344     -1.63757427
H       2.33181094      0.46501598      1.96142836
H       3.58549180      2.16023799      0.11428871
