30
O=C(NNC(=O)c1ccccc1)c1ccccc1
O       1.19602201      1.97164699     -0.13881956
C       1.56202620      0.87164157      0.27069506
N       0.69706826     -0.01091590      0.89196666
N      -0.67276438      0.31263885      0.85083477
C      -1.55083897     -0.73266499      0.62866566
O      -1.19092426     -1.90816465      0.64696874
C      -2.96212281     -0.36580810      0.32621558
C      -3.76285330     -1.30341674     -0.33963336
C      -5.09176956     -1.00402082     -0.64472162
C      -5.62926409      0.22923731     -0.27948033
C      -4.84276759      1.16194126      0.39626506
C      -3.51183363      0.86699511      0.70340194
C       2.96571255      0.41045944      0.08427079
C       3.74069334      1.02845774     -0.90624405
C       5.06158815      0.62940190     -1.11773176
C       5.61692230     -0.38255693     -0.33621548
C       4.85643600     -0.99240659      0.66122727
C       3.53360907     -0.59671165      0.87632801
H       0.89305087     -1.01159668      0.91591855
H      -0.87372429      1.25153266      0.50668099
H      -3.35202922     -2.27003218     -0.62529528
H      -5.70682452     -1.73432559     -1.16479864
H      -6.66522807      0.46098972     -0.51544175
H      -5.26959466      2.11791414      0.69084861
H      -2.93229915      1.60140258      1.25553098
H       3.31590355      1.82179633     -1.51852879
H       5.65654652      1.11027604     -1.89032640
H       6.64668643     -0.69141111     -0.49994486
H       5.29743184     -1.77262941      1.27735744
H       2.97514141     -1.06967030      1.67912554
