32
CC(C)N(C(=O)SCC(Cl)=C(Cl)Cl)C(C)C
C      -2.33942160     -0.86278823      1.39377979
C      -1.31665157     -1.24590184      0.32141227
C      -1.90112649     -2.23611227     -0.69038121
N      -0.74073984     -0.04416544     -0.34052910
C       0.59802697      0.36059263     -0.24214794
O       1.05176172      1.34868399     -0.80803153
S       1.67063004     -0.60845868      0.75996511
C       3.21829228      0.30731715      0.49799319
C       4.34039110     -0.35419352      1.25576049
Cl      5.10093734     -1.65270267      0.36322431
C       4.78281510      0.00977559      2.47367872
Cl      4.04946261      1.30121344      3.37245741
Cl      6.10609932     -0.77914965      3.27386335
C      -1.66253943      0.79610544     -1.14245526
C      -1.81999899      2.21051343     -0.57621467
C      -1.29709518      0.81876466     -2.62900765
H      -2.67491046     -1.75066758      1.94032291
H      -3.22561407     -0.38279965      0.96731110
H      -1.89868017     -0.16750669      2.11632053
H      -0.53409720     -1.79844853      0.84244679
H      -1.15659636     -2.49411234     -1.45115998
H      -2.20551616     -3.16113149     -0.18877956
H      -2.78093661     -1.83805206     -1.20461990
H       3.08142855      1.34704374      0.81121451
H       3.45298837      0.33617920     -0.57270618
H      -2.65792819      0.34330448     -1.08429341
H      -0.91256905      2.81073785     -0.68653752
H      -2.07028370      2.17630546      0.48940094
H      -2.62627895      2.74081296     -1.09459332
H      -2.08258098      1.31698099     -3.20754827
H      -1.18755926     -0.19936606     -3.01722143
H      -0.36170916      1.35122567     -2.82271328
