46
CCCCCCCCCCC(C)(C)C(=O)NO
C       6.91083149      1.79982069     -0.34121623
C       5.49534900      1.24481705     -0.38895798
C       5.10802060      0.59138048      0.93821010
C       3.65268536      0.11407495      0.97873369
C       3.35993984     -1.01813862     -0.00932478
C       1.97642325     -1.64752349      0.18382123
C       0.82467372     -0.68486531     -0.11358715
C      -0.52853482     -1.39299648     -0.01441857
C      -1.68344741     -0.43079470     -0.30679274
C      -3.03758538     -1.15059015     -0.21888436
C      -4.28693724     -0.23760807     -0.37422160
C      -5.52586833     -1.14697782     -0.49620150
C      -4.17559286      0.63193309     -1.63719024
C      -4.46622538      0.64431370      0.87740642
O      -3.74526722      0.57953968      1.87366780
N      -5.53325187      1.51549404      0.84751148
O      -5.61978907      2.39279214      1.95624950
H       7.00749584      2.56267702      0.43791215
H       7.63653232      1.00595350     -0.13752790
H       7.17006257      2.25952357     -1.30008632
H       4.79833142      2.05802331     -0.62180956
H       5.43239710      0.51675918     -1.20468464
H       5.77783877     -0.25204531      1.14569829
H       5.25273574      1.31528532      1.74990571
H       3.43501199     -0.23220389      1.99657274
H       2.99145261      0.96609564      0.78427307
H       4.11349259     -1.80577669      0.11345417
H       3.44619865     -0.65306381     -1.03901807
H       1.88556247     -2.02900343      1.20813695
H       1.89998852     -2.51504977     -0.48348015
H       0.84293757      0.15231303      0.59310693
H       0.94639981     -0.26520075     -1.11941010
H      -0.64784080     -1.81565113      0.99062790
H      -0.55913017     -2.22910987     -0.72359407
H      -1.64518169      0.40472501      0.40005511
H      -1.54907926     -0.01178697     -1.31057003
H      -3.05796918     -1.92333915     -0.99951335
H      -3.09681477     -1.68529455      0.73876404
H      -5.65720727     -1.75504435      0.40644514
H      -6.44572866     -0.56722741     -0.63269313
H      -5.43651310     -1.82619840     -1.35148855
H      -5.12899616      1.10921909     -1.88944901
H      -3.87791275      0.03160753     -2.50423581
H      -3.44257003      1.43570987     -1.50711216
H      -5.94433448      1.85347237     -0.01482284
H      -4.87258334      2.08995986      2.51973837
