34
CCCSC(=O)N(CCC)CCC
C       5.01049802      0.55914317     -0.27817823
C       3.58903428      0.06871063     -0.51267992
C       3.12385723     -0.83135904      0.63020734
S       1.44243200     -1.45701481      0.34392181
C       0.49531538     -0.02735055      0.73824900
O       1.01868788      0.92616491      1.30510851
N      -0.85329370     -0.05501892      0.38627292
C      -1.53273458     -1.13741006     -0.33596892
C      -2.12711348     -2.17160131      0.62073551
C      -2.82196968     -3.29212702     -0.13533696
C      -1.66769665      1.10359680      0.75118673
C      -1.64636701      2.17357528     -0.34066146
C      -2.49517901      3.37483619      0.04154590
H       5.07667069      1.14101502      0.64672652
H       5.70899046     -0.28078353     -0.20742202
H       5.33183204      1.19914093     -1.10590073
H       3.55825321     -0.47822606     -1.46287531
H       2.93237977      0.93993516     -0.61641854
H       3.18108140     -0.31686343      1.59513574
H       3.78409657     -1.70311879      0.69756119
H      -0.84171310     -1.61741875     -1.03526693
H      -2.32462715     -0.69391636     -0.95175557
H      -2.84715409     -1.68941065      1.29225575
H      -1.34398543     -2.59768880      1.25772475
H      -3.24437722     -4.01801300      0.56647792
H      -3.63757446     -2.90197356     -0.75247959
H      -2.11875978     -3.81981117     -0.78753914
H      -2.69278273      0.76720527      0.94543171
H      -1.29239356      1.52895002      1.68962501
H      -0.61667087      2.50192069     -0.52511655
H      -2.01636315      1.75515564     -1.28394728
H      -2.12637661      3.83878767      0.96189384
H      -3.53892423      3.08382117      0.19714286
H      -2.46707243      4.12714726     -0.75288173
