35
O=C(O)CCCCCCCCCC(=O)O
O       6.25377056      1.51208157      0.24102550
C       5.43116973      1.30769798     -0.63539752
O       5.02715729      2.30143285     -1.44845099
C       4.74692564      0.00383245     -0.92559576
C       3.38104935     -0.04916827     -0.25052191
C       2.68120588     -1.38185876     -0.52122805
C       1.35349573     -1.53580771      0.22615868
C       0.27620762     -0.55308620     -0.23806894
C      -1.05976746     -0.82744156      0.45641773
C      -2.13761975      0.15635330     -0.00208376
C      -3.47268079     -0.11858521      0.69077380
C      -4.54916567      0.86391472      0.23392237
C      -5.86675712      0.59989850      0.91090502
O      -6.12412160     -0.26800899      1.72656926
O      -6.81739680      1.46831325      0.51216983
H       5.53724550      3.08048873     -1.14235983
H       5.39410351     -0.80455981     -0.56627516
H       4.66301966     -0.12011217     -2.01136234
H       3.49908149      0.09627227      0.83046694
H       2.76663356      0.78231796     -0.61426933
H       3.34232410     -2.20178811     -0.21392202
H       2.51258348     -1.49967690     -1.59858968
H       0.99286873     -2.56057817      0.07268735
H       1.52225992     -1.41903799      1.30360101
H       0.58684401      0.47508153     -0.02172837
H       0.14827174     -0.63345603     -1.32424728
H      -1.38304249     -1.85288898      0.23977030
H      -0.93096717     -0.75143766      1.54300109
H      -2.26539385      0.08096412     -1.08881094
H      -1.81537900      1.18195488      0.21538263
H      -3.79560378     -1.14532844      0.47750059
H      -3.34647140     -0.04819243      1.77847059
H      -4.24187564      1.88837826      0.47129920
H      -4.69710003      0.77649456     -0.84809180
H      -7.61287494      1.19553647      1.01585956
