12
O=S(=O)([O-])CCBr.[Na+]
O       0.90385292     -1.07693445      1.62407072
S       1.39012066     -0.33805606      0.46140785
O       2.34823682     -1.06091966     -0.37116631
O       1.72593569      1.06112699      0.71379108
C      -0.04007707     -0.23144761     -0.57981586
C      -1.15410457      0.49771189      0.12673831
Br     -2.72036817      0.60242731     -1.04181502
Na      0.00000000      0.00000000      0.00000000
H       0.25875007      0.28524282     -1.49837767
H      -0.33295085     -1.25363996     -0.84319766
H      -0.89263267      1.52984561      0.37524695
H      -1.48676284     -0.01535688      1.03311761
