27
NS(=O)(=O)c1ccc(CCCO)cc1
N       4.61077296      0.28145924     -0.28429733
S       3.58176904      0.76298881      0.95163287
O       3.73584627      2.19498328      1.06094466
O       3.84313902     -0.13002292      2.05629255
C       1.99232096      0.39778665      0.26915540
C       1.30851936      1.37839543     -0.45277373
C       0.04180427      1.09629163     -0.96684976
C      -0.54980809     -0.15831433     -0.75587014
C      -1.92533258     -0.45411754     -1.30328273
C      -3.04898942      0.25589751     -0.54709645
C      -3.22021839     -0.24783885      0.88103234
O      -4.34835204      0.38306599      1.47518584
C       0.14584456     -1.12873530     -0.01971546
C       1.41283721     -0.85228906      0.49737641
H       5.20262010     -0.48469165      0.03758300
H       5.13133686      1.08613933     -0.63402157
H       1.75160672      2.35782825     -0.61837844
H      -0.48362032      1.86255251     -1.53374019
H      -2.10596191     -1.53641310     -1.30724502
H      -1.94882649     -0.14556364     -2.35641043
H      -3.99192277      0.10475791     -1.08806576
H      -2.88937741      1.34137058     -0.53526068
H      -2.34377874     -0.03354772      1.49996499
H      -3.39573698     -1.32798572      0.89402048
H      -4.14627767      1.33197593      1.54558956
H      -0.29716827     -2.10640921      0.16058458
H       1.93695376     -1.61150235      1.07364501
