16
Clc1c(Cl)c(Cl)c2nccnc2c1Cl
Cl      3.90642376     -0.85277395      0.36909922
C       2.27672012     -0.28766635      0.13435958
C       2.03910036      0.99704943     -0.36362552
Cl      3.36975905      2.04875575     -0.75560410
C       0.71629293      1.43080094     -0.54452767
Cl      0.39453666      3.03164310     -1.16531971
C      -0.37888675      0.60778370     -0.23832549
N      -1.65199087      1.04397438     -0.41966025
C      -2.66448838      0.21064456     -0.10864353
C      -2.43163629     -1.04828862      0.37935026
N      -1.17971726     -1.50941351      0.57009491
C      -0.13833253     -0.69279466      0.26580998
C       1.18768877     -1.11784645      0.44338650
Cl      1.45962955     -2.72687925      1.06681819
H      -3.66691744      0.59150114     -0.26585973
H      -3.23818168     -1.72649020      0.63264735
