32
Cn1c(=O)c2c(ncn2CC(O)CO)n(C)c1=O
C      -2.41303996     -2.10783440     -1.86360107
N      -2.03817456     -1.06213889     -0.93135238
C      -0.71946654     -1.03207227     -0.47439566
O       0.15921484     -1.81534413     -0.82574432
C      -0.46839240      0.03069582      0.43481315
C      -1.41155659      0.95457276      0.77073693
N      -0.92667287      1.88405448      1.63828103
C       0.32323741      1.52285535      1.84408390
N       0.64913330      0.39482631      1.13339692
C       1.93368026     -0.28658738      1.18031907
C       2.74623786     -0.10781626     -0.10819981
O       2.80676254     -1.33894986     -0.84940907
C       4.19374239      0.28800208      0.19841069
O       4.91458515      0.42879008     -1.02418538
N      -2.68505582      0.91264895      0.25722649
C      -3.65218710      1.93070904      0.62650367
C      -3.03203890     -0.10778561     -0.62878239
O      -4.15520240     -0.17889118     -1.13569865
H      -3.36119362     -2.55696414     -1.55057632
H      -1.65690165     -2.89433210     -1.93014527
H      -2.55038281     -1.65939353     -2.85288712
H       1.02369201      2.03416198      2.49329828
H       2.46646003      0.12561582      2.04555183
H       1.72544215     -1.34145699      1.39270162
H       2.30608591      0.63931317     -0.77913979
H       1.88270948     -1.63684752     -1.00931557
H       4.69873117     -0.48368841      0.78890465
H       4.24284849      1.23884444      0.73715840
H       4.68363830     -0.36631790     -1.54677894
H      -4.62638596      1.75515992      0.16280721
H      -3.28156230      2.90834586      0.30242161
H      -3.77798781      1.92782449      1.71388911
