30
CCc1c(C(=O)O)c(=O)cnn1-c1ccc(Cl)cc1
C      -0.88149718      2.04617102      1.05362206
C      -0.98137860      1.38406812     -0.31714544
C      -1.04637035     -0.14134305     -0.21250153
C      -2.20737199     -0.80058596     -0.42771946
C      -3.44183047     -0.15628539     -0.87196657
O      -3.59966758      0.47136727     -1.90280481
O      -4.42090900     -0.29251147      0.03757789
C      -2.20360410     -2.24303202     -0.15936302
O      -3.09403441     -3.01777507     -0.47623015
C      -1.02176407     -2.77958291      0.57166467
N       0.06575505     -2.10433046      0.74676150
N       0.10597526     -0.83346289      0.22269817
C       1.44430572     -0.34754189      0.09333367
C       1.92023768      0.19306105     -1.11259539
C       3.23958270      0.64364239     -1.22881117
C       4.10360949      0.54354744     -0.14150645
Cl      5.72564913      1.09789399     -0.28414060
C       3.66420607     -0.01206245      1.05634383
C       2.34531696     -0.46234162      1.16751615
H      -0.88128682      3.13560858      0.94398673
H       0.03692523      1.76538811      1.57747152
H      -1.73283984      1.77211533      1.68582597
H      -0.15124598      1.71147922     -0.94670777
H      -1.86560015      1.79786624     -0.81013019
H      -5.20034137      0.13983850     -0.37083236
H      -1.12796423     -3.80613210      0.95377177
H       1.27262368      0.24084485     -1.98467016
H       3.58596273      1.05866746     -2.17147733
H       4.33747584     -0.10378183      1.90401069
H       2.01008060     -0.90079044      2.10511415
