39
CCCCC(=O)OCn1cnc2c1c(=O)n(C)c(=O)n2C
C       6.42368918     -1.32457328     -1.07014740
C       5.10102619     -0.60052350     -1.26450250
C       4.27177890     -0.59510799      0.01884458
C       2.94406777      0.13329932     -0.18020973
C       2.11084129      0.14027385      1.07905221
O       2.44231972     -0.32503597      2.15965581
O       0.92555574      0.76246595      0.83847266
C       0.05059924      0.72063450      1.96149417
N      -1.21165465      1.30390261      1.55023150
C      -1.69675394      2.52653025      1.93560830
N      -2.87569084      2.77290119      1.39937956
C      -3.14125823      1.67201485      0.64236938
C      -2.14190726      0.75050181      0.71600000
C      -2.17014465     -0.48837762      0.02101161
O      -1.27161689     -1.31961881      0.10906756
N      -3.32400821     -0.64798857     -0.75162602
C      -3.47331970     -1.87414575     -1.51086488
C      -4.38626012      0.27618166     -0.84497642
O      -5.37752256      0.03499205     -1.54032583
N      -4.26457860      1.46235494     -0.11988603
C      -5.31048292      2.46783854     -0.16626130
H       7.00050471     -1.31642144     -2.00026967
H       6.26108287     -2.36760697     -0.78035550
H       7.02492777     -0.84152451     -0.29328544
H       5.29844329      0.42913576     -1.58470602
H       4.53887722     -1.08860113     -2.06916033
H       4.84018120     -0.11331439      0.82429847
H       4.08218030     -1.62664137      0.34131063
H       3.13040479      1.17280836     -0.47205033
H       2.36630339     -0.36164632     -0.96892831
H       0.45205957      1.32048176      2.78591229
H      -0.14636939     -0.30510123      2.29276486
H      -1.15794536      3.19120293      2.59968048
H      -2.59656398     -2.52241705     -1.43868378
H      -4.34829980     -2.41600205     -1.13706256
H      -3.64403272     -1.62613305     -2.56364363
H      -4.89040729      3.40307892     -0.54977265
H      -5.69792633      2.62705522      0.84504363
H      -6.13809966      2.16611111     -0.81347935
