31
N#CC(C#N)=NNc1ccc(N=Nc2ccccc2)cc1
N       7.30152605     -0.41779253      1.68528876
C       6.78663081     -0.31099908      0.64834492
C       6.12778823     -0.15087384     -0.61590606
C       6.82817253      0.05539395     -1.85077074
N       7.42285739      0.22456953     -2.83557243
N       4.83328720     -0.18256675     -0.72011915
N       4.07169672     -0.37743306      0.39957952
C       2.66567696     -0.39284024      0.24347331
C       2.04928543     -0.52149747     -1.00761185
C       0.65566576     -0.59516328     -1.11921913
C      -0.15372378     -0.55613550      0.01771845
N      -1.54877587     -0.66315125     -0.12635285
N      -2.12191762      0.33627830      0.36127032
C      -3.51642154      0.23470155      0.20331863
C      -4.19481505      1.21684157     -0.52628748
C      -5.58257124      1.16173405     -0.67605895
C      -6.30553578      0.12526135     -0.08724125
C      -5.64363234     -0.85305066      0.65314729
C      -4.25594804     -0.79500057      0.80114962
C       0.45874590     -0.47425872      1.27325826
C       1.85212520     -0.39958886      1.38492808
H       4.35057255      0.02951173      1.29644127
H       2.64863503     -0.56492337     -1.91337577
H       0.19886905     -0.68687505     -2.10122814
H      -3.63371075      2.02786985     -0.98309359
H      -6.09728721      1.92763952     -1.25029745
H      -7.38561442      0.08136282     -0.20333733
H      -6.20563537     -1.65972518      1.11643020
H      -3.74353995     -1.55595549      1.38378472
H      -0.15460528     -0.47484567      2.17068344
H       2.29219943     -0.35098795      2.37765539
