32
ON=C1CCCCCCCCC1=NO
O       0.68643917     -2.33835360     -2.36777493
N       1.34189185     -1.37916621     -1.59098767
C       0.86210776     -1.31801195     -0.38126144
C      -0.24637093     -2.20693894      0.17648736
C      -1.24831114     -1.57188823      1.14520587
C      -2.33727523     -0.71214461      0.48937617
C      -1.83807587      0.50232227     -0.29115675
C      -1.11383150      1.52874858      0.58439073
C      -0.17990072      2.44409873     -0.20508070
C       0.99328602      1.74736560     -0.90744100
C       1.97095042      1.02033130      0.02055795
C       1.55226862     -0.34320978      0.56411544
N       1.81443626     -0.79255775      1.75857346
O       2.49765776      0.14750757      2.53480906
H       1.16718955     -2.28973275     -3.21552645
H       0.26748261     -3.02337625      0.70054722
H      -0.80832230     -2.67293494     -0.63895351
H      -1.76376232     -2.39260226      1.66218791
H      -0.74529900     -1.00967349      1.93536588
H      -3.03127072     -0.37462699      1.26926536
H      -2.92300889     -1.34421420     -0.18983748
H      -1.22013607      0.15802301     -1.12258967
H      -2.70010633      0.99641369     -0.75766804
H      -1.86987957      2.14797548      1.08418979
H      -0.54855034      1.05892877      1.39148627
H      -0.76455725      2.98636623     -0.95866860
H       0.22010497      3.20395419      0.47795705
H       1.56113149      2.53203157     -1.42549553
H       0.62587438      1.09185926     -1.70039402
H       2.22821626      1.69598230      0.84225622
H       2.90207024      0.84256350     -0.53322335
H       2.64755081     -0.33504011      3.36958163
