75
CC(O)C(=O)O.CCCCC(CC)COC(=O)Nc1ccc(C)c(NC(=O)OCCN(C)C)c1
C      -1.26456737      0.66975993     -0.08218721
C      -0.30638356     -0.45597517      0.26574466
O      -0.69798588     -1.61094379     -0.47805457
C       1.14403405     -0.08095812     -0.02965447
O       1.93739399     -0.77531688     -0.64905704
O       1.53498254      1.08489252      0.51726998
C      -7.62747342      2.15690879     -1.23137442
C      -7.17620863      0.71567838     -1.41033804
C      -7.42155343     -0.15853597     -0.17830972
C      -6.71999320      0.29703502      1.10842785
C      -5.18771098      0.46864435      1.02327549
C      -4.59946397      0.94591587      2.37393968
C      -5.10340790      2.31238807      2.81947785
C      -4.49626106     -0.83682476      0.58366838
O      -3.08724244     -0.59974328      0.43634366
C      -2.36334678     -1.69465495      0.07778799
O      -2.84772832     -2.79942808     -0.11207554
N      -1.05515903     -1.31765424     -0.01913286
C       0.06057875     -2.09951927     -0.36370559
C      -0.01079087     -3.45278543     -0.67646506
C       1.14780485     -4.15715833     -1.01070419
C       2.40004796     -3.52257649     -1.03851222
C       3.60812346     -4.34088427     -1.40763867
C       2.48169923     -2.15146408     -0.72220955
N       3.74309720     -1.52128838     -0.75221184
C       4.06136035     -0.22029930     -0.48490697
O       3.31682639      0.68936879     -0.15580993
O       5.40521549     -0.08065765     -0.64548402
C       5.89556775      1.25126540     -0.40913645
C       7.41983320      1.24103676     -0.59509628
N       8.05189019      2.57033053     -0.51959474
C       7.96140920      3.14521097      0.82430887
C       9.45728744      2.48028249     -0.92504802
C       1.30816871     -1.45957726     -0.38894856
H      -1.06730568      1.56768240      0.51144511
H      -2.30125868      0.36029176      0.08817907
H      -1.18168584      0.93750270     -1.14168960
H      -0.37793666     -0.71027953      1.32823366
H       0.10407210     -2.15795446     -0.58759487
H       2.47664100      1.17129864      0.25736530
H      -8.68052714      2.20503434     -0.93652773
H      -7.03140969      2.67338164     -0.47323759
H      -7.51400244      2.70525938     -2.17208864
H      -6.11720108      0.69592725     -1.68934441
H      -7.72546351      0.28181745     -2.25477756
H      -8.50106072     -0.19474922      0.01760763
H      -7.13017813     -1.18899846     -0.41204184
H      -7.18044524      1.23948917      1.42373729
H      -6.95429284     -0.42986656      1.89719652
H      -4.94933217      1.24311765      0.28314260
H      -3.50734738      1.00857802      2.29702720
H      -4.81658899      0.20973695      3.15756081
H      -4.54569659      2.64681664      3.70050048
H      -6.16101886      2.28328874      3.09580126
H      -4.96819953      3.05868246      2.03043026
H      -4.66102834     -1.62148007      1.33229761
H      -4.88512652     -1.17119859     -0.38348229
H      -0.90212793     -0.34038890      0.18963415
H      -0.95264986     -3.99277054     -0.67109252
H       1.05938336     -5.21510255     -1.25121878
H       4.08153411     -3.93487619     -2.30736232
H       3.34259092     -5.38227841     -1.61909585
H       4.32856253     -4.34786194     -0.58335914
H       4.54846521     -2.07386755     -1.00443067
H       5.43385882      1.93767273     -1.12882519
H       5.63296307      1.55063461      0.61133140
H       7.86990117      0.54660125      0.12750584
H       7.61770512      0.80377608     -1.58346966
H       6.92035977      3.33244290      1.10552804
H       8.46299263      4.11917808      0.86009566
H       8.41689806      2.49774339      1.58225919
H       9.53932755      2.10668279     -1.95194902
H      10.03532838      1.81909701     -0.26904201
H       9.92543360      3.47105875     -0.91676914
H       1.34582253     -0.40359197     -0.14265283
