52
CC(Cc1cccc(CC(C)c2ccc(O)cc2)c1)c1ccc(O)cc1
C       2.02210346     -0.19402737     -2.18398956
C       2.49435153     -0.09204956     -0.72772371
C       2.26678887      1.31562918     -0.13271781
C       0.80768447      1.67048379      0.03725988
C       0.18498931      2.56590426     -0.84048683
C      -1.16628892      2.87579655     -0.69065999
C      -1.90795925      2.29660432      0.33811340
C      -1.30417222      1.40354590      1.23090386
C      -2.11083858      0.75522810      2.33390201
C      -2.60128665     -0.66500658      1.97486890
C      -3.08739102     -1.39432739      3.23426087
C      -3.67453634     -0.64962020      0.89487341
C      -4.96592131     -0.15647132      1.14029371
C      -5.92433907     -0.13642155      0.12518521
C      -5.59748171     -0.60304752     -1.14095171
O      -6.56274747     -0.56212621     -2.10313674
C      -4.32439166     -1.09019895     -1.41200043
C      -3.36629923     -1.11146064     -0.39551722
C       0.05459971      1.09531975      1.07135649
C       3.95842874     -0.49421552     -0.60646028
C       4.31577470     -1.58257641      0.20500246
C       5.65228146     -1.96445589      0.33497235
C       6.63881658     -1.26155026     -0.34347284
O       7.93076763     -1.66839475     -0.18797308
C       6.31167775     -0.17950034     -1.15241919
C       4.97379496      0.20260485     -1.28237399
H       2.25539473     -1.17980110     -2.60238042
H       2.49753128      0.55942840     -2.82130094
H       0.93838320     -0.05665649     -2.25680890
H       1.89737340     -0.81311663     -0.15270370
H       2.74541304      1.38758843      0.85400764
H       2.76039791      2.07812151     -0.74976321
H       0.74631352      3.02395895     -1.65133630
H      -1.64558301      3.56597990     -1.37988029
H      -2.96465812      2.53780826      0.43225569
H      -2.95267907      1.40538666      2.60583124
H      -1.47618360      0.71143584      3.22947449
H      -1.74588042     -1.24470812      1.60058630
H      -3.89142878     -0.85008265      3.74097982
H      -3.46028091     -2.39515352      2.98940511
H      -2.26634930     -1.51041588      3.95028274
H      -5.23892871      0.22331037      2.12152623
H      -6.92184971      0.24538195      0.32221911
H      -6.18977128     -0.91791160     -2.92605139
H      -4.05601354     -1.45025982     -2.39971942
H      -2.36784218     -1.48074798     -0.62087897
H       0.53145363      0.39920927      1.75900015
H       3.55597040     -2.14430022      0.74365354
H       5.92149365     -2.80807305      0.96394053
H       8.50210786     -1.08942005     -0.71819934
H       7.07596701      0.37598699     -1.68620779
H       4.73124327      1.05138436     -1.91772490
