17
CCc1cccnc1
C      -2.30023642     -0.45566787      0.51660266
C      -1.50041440      0.53194231     -0.31916002
C      -0.02029437      0.33544028     -0.15384545
C       0.69345735     -0.54446880     -0.97083955
C       2.06114124     -0.71179752     -0.77494459
C       2.67162923      0.00636449      0.23960794
N       2.01641870      0.86046406      1.05385095
C       0.68880038      1.00311560      0.84047934
H      -3.37285192     -0.28890048      0.37583846
H      -2.07687779     -0.34587816      1.58326852
H      -2.07733317     -1.48948274      0.23153872
H      -1.77074724      1.55746605     -0.03935733
H      -1.77048857      0.42519805     -1.37685098
H       0.19062626     -1.10048345     -1.75781465
H       2.63685399     -1.38711775     -1.39743699
H       3.73629745     -0.09043147      0.43116151
H       0.19401928      1.69423740      1.51790146
