22
O=[N+](O)OCCCCO[N+](=O)O
O      -4.55834075      0.15167075     -0.05926140
N      -3.63674454      0.64394797      0.89627971
O      -4.16263174      1.16899672      2.09056644
O      -2.22847303      0.61679600      0.69065041
C      -1.92843798      0.06731959     -0.58630468
C      -0.41492348      0.06481080     -0.79067611
C       0.30587789     -0.82402873      0.23019677
C       1.80911953     -0.89806114     -0.02919446
O       2.37437490      0.39903038      0.11433222
N       3.77962951      0.35087227     -0.10745465
O       4.45898578     -0.84342299     -0.44931566
O       4.54927573      1.52297364      0.00379773
H      -5.10324035      1.03240646      1.89186776
H      -2.39170701      0.68094650     -1.36765721
H      -2.31477583     -0.95642784     -0.65407641
H      -0.04074964      1.09172488     -0.70179170
H      -0.19246518     -0.28372298     -1.80581548
H       0.13641210     -0.42568439      1.23769968
H      -0.11210492     -1.83681380      0.19813422
H       1.99389565     -1.27766580     -1.04095872
H       2.26277317     -1.57863423      0.70065940
H       5.41425019      1.13296595     -0.20259046
