43
CCOC(=O)COC(=O)c1cc(Oc2ccc(C(F)(F)F)cc2Cl)ccc1[N+](=O)[O-]
C       7.22095733      1.52574026      2.04643579
C       5.73015268      1.27601035      1.92724302
O       5.51170430      0.39077753      0.82215964
C       4.19939178      0.09732167      0.59276293
O       3.25876640      0.50038465      1.26653406
C       4.08188366     -0.83545323     -0.60486171
O       2.72000745     -1.08085722     -0.96900725
C       2.13344440     -0.04527122     -1.61424594
O       2.65301043      1.01161948     -1.92544107
C       0.69820690     -0.33421932     -1.78514704
C      -0.20130253      0.68191649     -1.43580249
C      -1.57696860      0.44981989     -1.50331215
O      -2.40301800      1.49789420     -1.16517891
C      -3.43332412      1.21196570     -0.29647755
C      -3.16437555      0.71703780      0.98394816
C      -4.21478777      0.47029196      1.87139603
C      -5.54233333      0.73515365      1.49852778
C      -6.68246056      0.44918137      2.44662299
F      -6.31287170      0.48898529      3.75627651
F      -7.21972384     -0.78440246      2.24420681
F      -7.71033756      1.33290785      2.32146223
C      -5.79955763      1.24377822      0.21400110
C      -4.74983556      1.49091326     -0.67443359
Cl     -5.12167685      2.11727072     -2.23808581
C      -2.07084064     -0.77717418     -1.96003612
C      -1.18300734     -1.78891868     -2.33020465
C       0.19759380     -1.55636463     -2.24315813
N       1.09170070     -2.60124402     -2.70516601
O       1.95463481     -2.28470174     -3.53399115
O       0.90062392     -3.74141269     -2.26233032
H       7.61306924      1.96589105      1.12357972
H       7.43824154      2.19992517      2.87955798
H       7.75815951      0.58456864      2.20360501
H       5.20924446      2.22381117      1.75086442
H       5.35738886      0.81518011      2.84883142
H       4.51887052     -1.79960336     -0.32665750
H       4.64083490     -0.43247793     -1.45714425
H       0.16723102      1.64765624     -1.09226161
H      -2.14049813      0.53057263      1.29972200
H      -3.99150208      0.07784312      2.86357194
H      -6.82481672      1.45182652     -0.09033715
H      -3.14167923     -0.94497993     -2.05020195
H      -1.57020086     -2.73763739     -2.69782720
