22
CC(C)C1(Br)C(=O)NC(=O)NC1=O
C       2.34199880     -1.05347584      0.14477766
C       1.36604600      0.01149896     -0.38128643
C       1.55120345      1.29059929      0.45331617
C      -0.13015932     -0.40030797     -0.45030614
Br     -0.31035512     -2.04418929     -1.57135413
C      -0.96200922      0.61280249     -1.23250687
O      -0.50007473      1.36671021     -2.08837581
N      -2.30473235      0.64439072     -0.96313772
C      -2.89539677      0.14986793      0.15642147
O      -4.02599524      0.48887386      0.48761766
N      -2.14394584     -0.67287147      0.93456899
C      -0.77872324     -0.77830643      0.87318308
O      -0.16657052     -1.17643640      1.86169812
H       2.15489148     -1.31260214      1.18984156
H       3.37063194     -0.67758603      0.08973678
H       2.31515767     -1.97160582     -0.44722406
H       1.70247049      0.25003336     -1.40039655
H       1.28909066      1.12797442      1.50372855
H       0.93683179      2.11315712      0.07514138
H       2.59444425      1.62389916      0.41956430
H      -2.84382493      1.32852662     -1.47733745
H      -2.56097928     -0.92095276      1.82232944
