23
Clc1ccc(Oc2ccc(Cl)c(Cl)c2Cl)cc1Cl
Cl      5.17610154      0.57973121      1.22634110
C       3.63343140      0.16497567      0.56937069
C       3.49008481      0.19301697     -0.82124578
C       2.26374243     -0.12903910     -1.40551606
C       1.17515205     -0.46528533     -0.60051853
O       0.00792808     -0.79724524     -1.25165021
C      -1.16859339     -0.31920862     -0.71355482
C      -1.36792446      1.05902672     -0.58942429
C      -2.57476464      1.53910941     -0.08654259
C      -3.58946390      0.64738213      0.27781086
Cl     -5.05316170      1.33544853      0.89349087
C      -3.40621944     -0.73836451      0.13588657
Cl     -4.67536590     -1.83720240      0.58389647
C      -2.18814606     -1.22216979     -0.37126850
Cl     -1.90056767     -2.92276226     -0.57126278
C       1.31759280     -0.51948746      0.78828350
C       2.54582566     -0.19605741      1.37430115
Cl      2.65339900     -0.26486239      3.09779169
H       4.33181290      0.46068391     -1.45597541
H       2.15836320     -0.11585997     -2.48799493
H      -0.59225634      1.76022374     -0.88872624
H      -2.72330229      2.61263478      0.01422226
H       0.48633193     -0.82468857      1.41769468
