57
CC(=O)OC1(C)CCC2C3CCC4=CC(=O)CCC4(C)C3CCC21C
C       5.80257931     -0.95770413     -1.79158892
C       4.55570411     -0.13902280     -1.64689265
O       3.92383578      0.31315527     -2.58849944
O       4.25798682      0.00523553     -0.33039427
C       3.09041392      0.75100504      0.10072024
C       3.17305421      2.20323414     -0.40546056
C       3.18099492      0.77549672      1.66278857
C       1.76580600      0.55044224      2.21438722
C       0.86317947      0.61717260      0.99046531
C      -0.53753526     -0.00304772      1.09690891
C      -1.33858428      0.61777908      2.24998305
C      -2.73732189      0.02096197      2.33487800
C      -3.48578978      0.14089535      1.02862802
C      -4.73341210      0.64365600      1.02272722
C      -5.55870727      0.67143322     -0.20630055
O      -6.68106362      1.16958545     -0.16938689
C      -5.01421754      0.00085668     -1.43903434
C      -3.50137601      0.15323451     -1.50348268
C      -2.76227919     -0.35639909     -0.23018529
C      -2.78724333     -1.90148365     -0.22127060
C      -1.29082497      0.21138929     -0.25031955
C      -0.44759796     -0.27298239     -1.45719382
C       0.99027120      0.27905877     -1.46294751
C       1.72825303      0.00611666     -0.13909690
C       1.93924365     -1.52760143      0.01098276
H       6.04364997     -1.06704710     -2.85286094
H       6.63639492     -0.45444523     -1.29569531
H       5.64412399     -1.95189169     -1.36618699
H       3.02304202      2.27661404     -1.48567232
H       4.16852243      2.61826270     -0.20737824
H       2.43686571      2.85617314      0.07260162
H       3.85255862     -0.00467775      2.04218262
H       3.58421409      1.72746356      2.02824972
H       1.70095628     -0.42559529      2.70840236
H       1.50564201      1.31260745      2.95617499
H       0.70807991      1.68587735      0.77746631
H      -0.44249905     -1.07462289      1.30259681
H      -1.40797507      1.70553673      2.11933682
H      -0.82641900      0.44452431      3.20349859
H      -3.28063682      0.51387309      3.15047997
H      -2.66791150     -1.03905682      2.60869335
H      -5.22814504      1.00271555      1.91869645
H      -5.46067654      0.47668209     -2.31918035
H      -5.31639030     -1.05102757     -1.42986171
H      -3.13909099     -0.36958875     -2.39668302
H      -3.27555363      1.21829863     -1.65435444
H      -2.16629760     -2.32175936      0.57594649
H      -3.80234002     -2.28657488     -0.06867595
H      -2.42952271     -2.31618920     -1.16951896
H      -1.38142610      1.30319369     -0.37306078
H      -0.92287771      0.03928683     -2.39375171
H      -0.41088219     -1.36633482     -1.48396905
H       1.52568644     -0.16536883     -2.30758275
H       0.93281887      1.35632340     -1.65746170
H       2.49754927     -1.92685346     -0.84308374
H       1.00104409     -2.08598726      0.05663668
H       2.50212642     -1.78577230      0.91359982
