26
COC(=O)Oc1ccc(NC(C)=O)cc1
C      -5.67672467      0.09740539     -0.32044303
O      -4.60249131      0.96632325      0.03308097
C      -3.38390984      0.36088136      0.03724959
O      -3.18240194     -0.81741455     -0.22208195
O      -2.44012819      1.31195634      0.38701687
C      -1.13200819      0.82634944      0.42232373
C      -0.70490541      0.01669532      1.47044372
C       0.62352299     -0.41462954      1.50003186
C       1.52753110     -0.02539685      0.49930918
N       2.84808808     -0.50906185      0.60522359
C       3.91145684     -0.24925235     -0.24041946
C       5.17213550     -0.95343137      0.19679552
O       3.91123756      0.47698793     -1.22767395
C       1.08095160      0.80682858     -0.53145764
C      -0.24806074      1.24017749     -0.56876528
H      -5.53791437     -0.29376973     -1.33329695
H      -6.60341598      0.67763203     -0.29892779
H      -5.76414233     -0.71961140      0.40271991
H      -1.39351200     -0.28439502      2.25393046
H       0.93999405     -1.05693103      2.31757779
H       3.03458139     -1.11139852      1.39676051
H       4.94778793     -1.94765307      0.59386735
H       5.67368049     -0.35577869      0.96238911
H       5.83704508     -1.07488568     -0.66324526
H       1.74322988      1.13892164     -1.32484423
H      -0.58162751      1.89345088     -1.36972009
