49
N#Cc1ccc2c(c1)N(CCCN1CCC(O)CC1)c1ccccc1S2
N      -2.22876252     -2.48353978      5.33069965
C      -2.69418449     -2.06683346      4.35269427
C      -3.25572680     -1.54833430      3.13975138
C      -4.63148913     -1.42638689      3.00254886
C      -5.14997608     -0.91097670      1.81947503
C      -4.30371891     -0.51403638      0.76413377
C      -2.90251833     -0.63457364      0.86828259
C      -2.41145397     -1.15652834      2.08809827
N      -2.03476711     -0.22761531     -0.18735895
C      -0.62197643     -0.68270232     -0.12559920
C       0.26575336      0.34161774      0.59869026
C       1.67890069     -0.19539540      0.85937685
N       2.39369445     -0.59511485     -0.36153443
C       2.81164491      0.53662767     -1.20620396
C       3.97621017      1.34540745     -0.63631233
C       5.15820236      0.43904544     -0.31119701
O       6.17880383      1.18657123      0.34271584
C       4.72757480     -0.73303166      0.56342946
C       3.54431360     -1.46675191     -0.06448328
C      -2.43125171      0.49882494     -1.34965990
C      -1.49300782      1.05416590     -2.25000498
C      -1.87131712      1.78047456     -3.38625440
C      -3.21186925      1.98175211     -3.66370265
C      -4.16558905      1.45571203     -2.80106880
C      -3.78873016      0.72561571     -1.65536758
S      -5.13465114      0.10034305     -0.67937719
H      -5.30518833     -1.72403273      3.80302454
H      -6.23057360     -0.81828521      1.71904895
H      -1.34439488     -1.25839764      2.26306795
H      -0.55181327     -1.66363136      0.36202736
H      -0.23350793     -0.89838621     -1.12856954
H       0.30849000      1.28315704      0.04202564
H      -0.17684513      0.60580734      1.56654557
H       1.56822213     -1.06872483      1.51600021
H       2.24396517      0.54622820      1.43542692
H       1.96977997      1.20411762     -1.41566820
H       3.10576723      0.13747402     -2.18612417
H       3.66463156      1.89917280      0.25784623
H       4.28907547      2.11010056     -1.35779120
H       5.58861518      0.05627728     -1.24416427
H       5.81680932      1.52637859      1.17900116
H       5.57030474     -1.42253112      0.69485843
H       4.47520664     -0.38209907      1.57195290
H       3.87113835     -1.93674620     -1.00147067
H       3.23592262     -2.29753228      0.58196785
H      -0.42484891      0.95172057     -2.09313217
H      -1.11035121      2.18719022     -4.04750839
H      -3.51639077      2.54256797     -4.54269857
H      -5.21812251      1.61583756     -3.02743811
