31
CCCOC(=O)c1ccc(NC(C)=O)cc1
C      -4.62305823     -1.42162546     -0.35046898
C      -4.61206582     -0.23586396     -1.30488875
C      -3.85391743      0.95930516     -0.73632727
O      -2.47870967      0.59754286     -0.55724072
C      -1.70421786      1.58270005     -0.04051915
O      -2.08012806      2.70438782      0.26177594
C      -0.29970237      1.11735042      0.11802155
C       0.64236474      2.01567307      0.63104445
C       1.97499121      1.62327650      0.79871975
C       2.38840523      0.32934292      0.45724567
N       3.74793499      0.01467230      0.65799661
C       4.38386194     -1.18384346      0.38768852
C       5.85198509     -1.14127698      0.73252227
O       3.88356869     -2.19170302     -0.09804652
C       1.44588156     -0.56510712     -0.05346898
C       0.10997859     -0.17616639     -0.22310685
H      -3.60941043     -1.78506248     -0.15437061
H      -5.19868606     -2.24699782     -0.78123723
H      -5.08222235     -1.15020721      0.60544053
H      -4.14609017     -0.55219842     -2.24537607
H      -5.64352271      0.05989034     -1.52571166
H      -4.28752584      1.25985650      0.22483000
H      -3.91798381      1.79664690     -1.44087487
H       0.34379954      3.02662472      0.90318891
H       2.67967386      2.34744319      1.19989601
H       4.32266740      0.75708680      1.03642518
H       6.21460746     -2.15913109      0.90279684
H       6.40561588     -0.69218250     -0.09613376
H       6.02299203     -0.56400731      1.64574392
H       1.71424573     -1.57991938     -0.33203254
H      -0.59533314     -0.90074631     -0.62353219
