28
O=C(O)CSC(CC(=O)O)c1ccccc1
O       3.02372646     -0.22608604     -0.06439957
C       2.71257229     -0.90983101      0.89546377
O       3.39805698     -2.04840373      1.14799180
C       1.60307395     -0.69796756      1.89739116
S       0.82804533      0.95218266      1.82441024
C       0.12096076      0.95960181      0.11252536
C      -0.73992927      2.21477891     -0.08848026
C       0.10108799      3.45238892     -0.20891807
O       1.13759149      3.57600265     -0.83874118
O      -0.44199513      4.51074066      0.42420778
C      -0.69490872     -0.29225074     -0.17494348
C      -0.28642351     -1.16386302     -1.19791146
C      -1.01522039     -2.31969201     -1.48259871
C      -2.16245466     -2.61913391     -0.75166876
C      -2.58307161     -1.76347244      0.26387404
C      -1.85621372     -0.60666625      0.55067043
H       4.07840802     -2.07253895      0.44202447
H       2.03736516     -0.78816139      2.89850866
H       0.84957488     -1.48111275      1.78303684
H       0.96549534      1.00806372     -0.58184218
H      -1.46192718      2.33769469      0.72867677
H      -1.32088372      2.14616234     -1.01717280
H       0.19778348      5.23580630      0.26316814
H       0.60680126     -0.94709763     -1.78246853
H      -0.68820140     -2.98540141     -2.27736559
H      -2.73012824     -3.51880190     -0.97466718
H      -3.47855638     -1.99675917      0.83439859
H      -2.20062946      0.04381727      1.35241552
