17
Cc1ccnc(C)c1
C      -2.41333468     -0.73774285     -0.08117729
C      -1.10080589     -0.01728274     -0.02527243
C      -1.04663207      1.37385699     -0.10304706
C       0.19392599      1.98995176     -0.07962028
N       1.36515302      1.32357950      0.00535838
C       1.30507821     -0.02691710      0.06597499
C       2.60472816     -0.76948018      0.15086663
C       0.10050202     -0.72725178      0.04800852
H      -2.37010753     -1.67219472      0.48817391
H      -3.21238924     -0.12881697      0.35468239
H      -2.67061225     -0.96751750     -1.11970836
H      -1.94800562      1.97219016     -0.17995767
H       0.28148500      3.07120601     -0.13301963
H       2.71760463     -1.43362224     -0.71163625
H       3.45089439     -0.07489029      0.15940692
H       2.64188413     -1.36284969      1.06971857
H       0.10063175     -1.81221836      0.09124865
