18
O=[N+]([O-])c1cc(C(F)(F)F)ccc1O
O      -3.21799672     -1.32882976      0.61012170
N      -2.00842019     -1.59749483      0.68934221
O      -1.55354467     -2.66900862      1.11163059
C      -1.05854537     -0.57090395      0.25151038
C       0.31896913     -0.84813387      0.31834971
C       1.25807822      0.11266254     -0.09655008
C       2.73874358     -0.17751481     -0.00467835
F       3.04227319     -1.46129777     -0.33990343
F       3.49324286      0.61015073     -0.81864583
F       3.22004483      0.00781499      1.25385192
C       0.79624663      1.35273156     -0.56304355
C      -0.57308021      1.62491290     -0.62874488
C      -1.50430264      0.66854354     -0.22466616
O      -2.81306992      1.05049657     -0.33539011
H       0.67615795     -1.80938050      0.69037772
H       1.50370422      2.11865040     -0.88163855
H      -0.91599873      2.59048327     -0.99639806
H      -3.40250216      0.32611761     -0.03552523
