20
c1ccc(-c2ccccn2)nc1
C       3.49131618     -0.31964465      0.04152649
C       2.74533148     -1.26168353     -0.65165528
C       1.35658247     -1.14617672     -0.67893814
C       0.73690862     -0.08732306     -0.01042386
C      -0.73691026      0.08732369     -0.00422504
C      -1.35658100      1.14618185      0.66428755
C      -2.74532952      1.26169027      0.63700095
C      -3.49131401      0.31964163     -0.05617093
C      -2.81414988     -0.70261333     -0.69559047
N      -1.46926400     -0.83936378     -0.68598890
N       1.46926149      0.83935921      0.67134482
C       2.81414801      0.70260636      0.68094914
H       4.57277314     -0.38007971      0.08273105
H       3.23462115     -2.08187849     -1.16880839
H       0.76319524     -1.87854099     -1.21886290
H      -0.76319161      1.87854494      1.20421302
H      -3.23461732      2.08189344      1.15414411
H      -4.57277181      0.38006433     -0.09737452
H      -3.35140954     -1.46547497     -1.25184398
H       3.35140118      1.46547353      1.23719941
