22
Clc1cc2c(cc1Cl)Oc1ccccc1O2
Cl      4.82522139     -1.73054677      1.11670430
C       3.45230814     -0.83197795      0.57492115
C       2.18596311     -1.36730490      0.82765880
C       1.04912770     -0.67822616      0.40936769
C       1.17066183      0.53952575     -0.25826839
C       2.43009664      1.07887286     -0.51345909
C       3.57455463      0.39291311     -0.09661938
Cl      5.10869730      1.10983030     -0.44054071
O       0.07898790      1.25094568     -0.68737900
C      -1.14074628      0.68404014     -0.41565080
C      -2.27930532      1.37150934     -0.83312314
C      -3.54309174      0.83518741     -0.57973399
C      -3.66484767     -0.38479974      0.08911847
C      -2.52311599     -1.07143781      0.50623017
C      -1.26229773     -0.53388788      0.25208578
O      -0.17013766     -1.24525334      0.68117250
H       2.07981822     -2.31586568      1.34731598
H       2.51343101      2.02885455     -1.03467732
H      -2.18409273      2.32043590     -1.35335173
H      -4.43372652      1.36827000     -0.90370269
H      -4.65018810     -0.80066511      0.28538952
H      -2.61731812     -2.02041973      1.02654189
