19
O=C(O)c1cc(O)cc(C(=O)O)c1
O       2.75235365     -1.97901690      0.23319715
C       2.52945303     -0.84665446     -0.15248473
O       3.51166203     -0.06444299     -0.63089624
C       1.20587152     -0.17973486     -0.15717458
C       1.03869024      1.12999349     -0.62017586
C      -0.22536161      1.71001713     -0.60318483
O      -0.34105280      2.98798612     -1.06381022
C      -1.33038003      1.00885363     -0.13244214
C      -1.16789599     -0.30271033      0.33212821
C      -2.36770605     -1.01882656      0.82619919
O      -3.49623290     -0.56512777      0.86556895
O      -2.09516068     -2.26517635      1.24562672
C       0.10049455     -0.89744095      0.31987751
H       4.31412158     -0.62396912     -0.56949585
H       1.88262376      1.70415404     -0.99428400
H      -1.26903307      3.27047927     -0.99725634
H      -2.31660270      1.46617733     -0.12099130
H      -2.96091644     -2.61820557      1.54036801
H       0.23507190     -1.91635516      0.67923036
