38
CS(=O)(=O)N1CCOc2cc(COc3ccccc3)cnc21
C      -4.37100527     -2.03609035      0.50933641
S      -4.64400305     -0.29124555      0.76178623
O      -4.13942272      0.09412812      2.06387089
O      -6.03307524     -0.03623142      0.42692301
N      -3.70026227      0.44314763     -0.44475008
C      -4.12804213      1.82620343     -0.80457917
C      -3.55933601      2.82154728      0.20483269
O      -2.12316520      2.80901955      0.23199447
C      -1.58706861      1.54881073      0.17154614
C      -0.22409381      1.43348766      0.42309955
C       0.38795015      0.17961938      0.34148253
C       1.85270408     -0.00891626      0.62455770
O       2.47131758     -0.51313831     -0.55614515
C       3.80990060     -0.78409864     -0.49161353
C       4.61526714     -0.69310384      0.64523707
C       5.97459365     -1.01328485      0.56907171
C       6.53370944     -1.42243845     -0.64069308
C       5.73501450     -1.51133293     -1.77854907
C       4.37809740     -1.19429474     -1.70094491
C      -0.41314140     -0.90746369     -0.00511385
N      -1.74106122     -0.83201301     -0.25720572
C      -2.29532619      0.39173756     -0.16714734
H      -4.46632373     -2.26125594     -0.55391759
H      -3.39401800     -2.32169797      0.89727409
H      -5.14338891     -2.57381512      1.06504956
H      -3.74179207      2.04239806     -1.80944306
H      -5.21697520      1.90752461     -0.86721935
H      -3.86506804      3.83566476     -0.07321378
H      -3.92983308      2.63874315      1.21975249
H       0.34986827      2.31987605      0.67865835
H       2.30886771      0.94852242      0.90407073
H       1.95399723     -0.71728546      1.45610106
H       4.22277850     -0.38158486      1.60744469
H       6.59837278     -0.94544959      1.45781135
H       7.59024440     -1.67126760     -0.69625990
H       6.16503427     -1.82839965     -2.72532833
H       3.75783920     -1.26669967     -2.59198031
H       0.01084524     -1.90597742     -0.09579649
