23
ClC1=C(Cl)C2(Cl)C3C4OC4C(Cl)C3C1(Cl)C2(Cl)Cl
Cl      1.74338775     -2.41555709      1.37125635
C       1.40220414     -0.89804212      0.70199397
C       1.25037196      0.26462216      1.34548784
Cl      1.33894536      0.54929628      3.01181797
C       0.90087269      1.31349443      0.30769586
Cl      1.15383567      2.98512858      0.77552744
C      -0.54334550      1.02188444     -0.20751289
C      -1.58112739      0.75210858      0.83662564
O      -2.88086517      0.48109038      0.30776129
C      -2.08614011     -0.64473256      0.70717681
C      -1.35776193     -1.36696738     -0.38700433
Cl     -2.52158407     -1.93317004     -1.60725718
C      -0.36567277     -0.34487597     -0.98672123
C       1.15540079     -0.63712337     -0.77270716
Cl      1.79258607     -1.83389283     -1.88587444
C       1.77919594      0.79567907     -0.87792094
Cl      3.56032486      0.86641848     -0.58481407
Cl      1.49619910      1.63297225     -2.44374989
H      -0.89797778      1.80299202     -0.89120440
H      -1.51788150      1.27840906      1.77507184
H      -2.38927769     -1.22821807      1.56125737
H      -0.86242230     -2.26136135     -0.00423948
H      -0.56926813     -0.18015496     -2.05266638
