44
CCN(CCO)C(=O)c1nc2cccnc2n1-c1cccc(C(F)(F)F)c1
C      -3.69849965      1.05630553      1.39267773
C      -2.45308273      0.28479909      1.79898017
N      -2.06944378     -0.72389089      0.80509760
C      -2.83823071     -1.97949533      0.79550448
C      -3.78142354     -2.10843190     -0.41009194
O      -3.12956304     -2.66838913     -1.54640632
C      -1.06230867     -0.54983983     -0.15828998
O      -0.80455280     -1.47179205     -0.93706215
C      -0.34832474      0.71959099     -0.22607550
N      -0.98464186      1.88249133     -0.16829453
C      -0.06421421      2.82265203     -0.51577335
C      -0.19588533      4.21044441     -0.64300646
C       0.93863426      4.93244362     -1.00988797
C       2.12867953      4.24987674     -1.22263808
N       2.30405457      2.91356123     -1.10797236
C       1.17507609      2.24848168     -0.76652239
N       1.00894164      0.88745286     -0.52249227
C       2.04185209     -0.10530827     -0.52483673
C       3.18886970      0.06551328     -1.31140146
C       4.20013665     -0.89831713     -1.31445548
C       4.08391023     -2.03977937     -0.52530617
C       2.95734694     -2.22562124      0.28639855
C       2.83585832     -3.46661355      1.13755473
F       1.89198734     -3.36048184      2.11551666
F       3.99659486     -3.77893950      1.77974758
F       2.50215741     -4.56836224      0.41215340
C       1.94048438     -1.25203465      0.27948587
H      -4.56745223      0.39347956      1.32928520
H      -3.92125120      1.83222487      2.13152807
H      -3.57571582      1.53493008      0.41662422
H      -2.62795531     -0.22873102      2.75181582
H      -1.62611731      0.97437803      1.98625744
H      -3.42351207     -2.03037882      1.72000074
H      -2.12213401     -2.80968834      0.80449016
H      -4.21010644     -1.14334981     -0.69637442
H      -4.60290561     -2.78630485     -0.15856019
H      -2.22256065     -2.29504340     -1.58157262
H      -1.14719639      4.69661559     -0.46159225
H       0.89467369      6.01030744     -1.12513954
H       3.02564675      4.79771413     -1.50544705
H       3.31312954      0.92610909     -1.96448589
H       5.07738235     -0.75719814     -1.94202019
H       4.87817712     -2.78482249     -0.54153356
H       1.09348462     -1.40655777      0.94412043
