41
CCCCCCCCCCCC(=O)OC
C      -6.61881309     -0.71720067     -1.20612837
C      -5.82293344     -0.38150223      0.04511835
C      -4.34058287     -0.17729047     -0.27144561
C      -3.54572338      0.15645925      0.99297514
C      -2.07512836      0.49019091      0.72072532
C      -1.26387258     -0.70723607      0.21866739
C       0.20761458     -0.37223957     -0.05184289
C       0.99241962     -0.01743413      1.21400341
C       2.50351892      0.08457782      0.97892042
C       2.89562249      1.24343475      0.05573539
C       4.41177641      1.40578005     -0.06176126
C       5.06485566      0.31018331     -0.87374060
O       4.48267415     -0.46904159     -1.61438782
O       6.41395812      0.34282824     -0.67666482
C       7.13164342     -0.64745782     -1.41407903
H      -6.54836806      0.08856983     -1.94375871
H      -7.67517481     -0.85825278     -0.95690670
H      -6.25275385     -1.63954249     -1.66831714
H      -5.93959546     -1.19196840      0.77400157
H      -6.23565201      0.52643128      0.50011029
H      -3.94610833     -1.08800101     -0.73532223
H      -4.22975694      0.63412498     -1.00082250
H      -3.60875124     -0.67767096      1.70237308
H      -4.00554417      1.02333976      1.48392177
H      -2.01215363      1.31156307     -0.00314813
H      -1.64154486      0.85883651      1.65713584
H      -1.69575901     -1.07662704     -0.71810387
H      -1.32711036     -1.52855086      0.94258620
H       0.67297775     -1.24378963     -0.52863833
H       0.26041618      0.45086479     -0.77339892
H       0.63088818      0.92886036      1.63169697
H       0.81658218     -0.78885976      1.97377251
H       2.87286832     -0.86513376      0.57512135
H       2.99078387      0.22272823      1.95217821
H       2.47789637      2.17445089      0.45789635
H       2.46161131      1.10075675     -0.94004218
H       4.63364120      2.35524624     -0.56194323
H       4.86015963      1.42713920      0.93787749
H       6.81216720     -1.65195808     -1.11926229
H       8.19439639     -0.53993788     -1.18010027
H       6.99685449     -0.49667102     -2.48972678
