42
CCCCCCCCCNC(=O)c1cccnc1
C       3.26605479     -4.49787363     -1.58333847
C       1.81584312     -4.11175522     -1.33994401
C       1.41638013     -2.88776759     -2.16372190
C      -0.04374660     -2.50245936     -1.91566813
C      -0.43909166     -1.27323705     -2.73628448
C      -1.92164156     -0.90777593     -2.61361094
C      -2.41899456     -0.59715921     -1.19856754
C      -1.68466700      0.56933084     -0.53680172
C      -2.29341030      0.90477600      0.82386971
N      -1.61285364      2.02031561      1.45221304
C      -0.43853663      1.83740538      2.15552759
O       0.07626519      0.74017068      2.33702348
C       0.22176657      3.05774689      2.67538871
C      -0.45998492      4.24545599      2.95218429
C       0.24880952      5.34179934      3.44259906
C       1.61417663      5.21023565      3.64393423
N       2.30125054      4.07448191      3.39803591
C       1.58791993      3.01955544      2.92774719
H       3.43551230     -4.74210048     -2.63688927
H       3.53035035     -5.37508261     -0.98453968
H       3.94107115     -3.68171438     -1.30661508
H       1.17006109     -4.95981772     -1.59576812
H       1.67307795     -3.90539848     -0.27281751
H       1.56541464     -3.09823641     -3.22979910
H       2.06758235     -2.04335567     -1.90673807
H      -0.69555874     -3.34461725     -2.17738605
H      -0.18316055     -2.30170654     -0.84749392
H       0.18369156     -0.41818945     -2.44925865
H      -0.22510946     -1.46549803     -3.79531987
H      -2.11761550     -0.04013531     -3.25601723
H      -2.52361775     -1.73111881     -3.01811376
H      -3.48828851     -0.35832230     -1.26066864
H      -2.34149503     -1.49079912     -0.56867110
H      -1.72858626      1.45290628     -1.18556644
H      -0.62429634      0.32416726     -0.40898223
H      -2.24425195      0.03614981      1.49002983
H      -3.34416323      1.19299687      0.71446625
H      -1.87595568      2.95002119      1.15716745
H      -1.53412448      4.32641342      2.82179479
H      -0.25305248      6.27563045      3.67220306
H       2.20754578      6.03678008      4.02539815
H       2.16942925      2.11778147      2.74969177
