50
CC(C)(C)NCC(O)COc1ccccc1C1CCCC1
C       5.31838871     -1.06247420      0.95799543
C       5.08338868     -0.63155836     -0.50011238
C       5.77462062     -1.65107466     -1.42566585
C       5.70777530      0.75135311     -0.74595593
N       3.65423814     -0.66748621     -0.85120726
C       2.80353239      0.35074158     -0.22209951
C       1.32083874      0.00963026     -0.46130969
O       1.03231645     -1.26491039      0.14380992
C       0.40516659      1.07641771      0.15050372
O      -0.94406306      0.71168298     -0.16375058
C      -1.95305455      1.45935984      0.38930056
C      -1.74987565      2.65095314      1.09539142
C      -2.83216230      3.34884698      1.63074958
C      -4.12245615      2.86229857      1.46298501
C      -4.33617591      1.67901915      0.75453306
C      -3.26306816      0.95991263      0.20075102
C      -3.46878056     -0.34034645     -0.57128997
C      -4.88637271     -0.64671133     -1.07882423
C      -5.56996309     -1.47344965      0.01256279
C      -4.47878092     -1.86485455      1.00419683
C      -3.16496125     -1.57080045      0.29265792
H       4.85793801     -2.03539172      1.16614046
H       4.91168044     -0.33872190      1.67211289
H       6.39025669     -1.15558654      1.16968469
H       6.85320346     -1.69188204     -1.23336537
H       5.37698391     -2.66257778     -1.27816182
H       5.63847004     -1.38904617     -2.48196523
H       6.79416452      0.72149624     -0.60161968
H       5.52208560      1.09616225     -1.76987461
H       5.31266585      1.50650139     -0.05758647
H       3.26026751     -1.58245950     -0.60706955
H       2.98048294      0.38125778      0.85791378
H       3.02072140      1.33724162     -0.64474915
H       1.11346417     -0.09146444     -1.53353478
H       0.06547558     -1.37553865      0.06649195
H       0.63702615      2.05662939     -0.28125081
H       0.53614848      1.08905741      1.23957294
H      -0.76006617      3.06793417      1.24533037
H      -2.66646716      4.27236210      2.17939236
H      -4.96694909      3.40261945      1.88308672
H      -5.35963857      1.33086741      0.65159263
H      -2.80438496     -0.31159845     -1.44457624
H      -4.81219596     -1.26931583     -1.98045904
H      -5.46387823      0.23850809     -1.36160941
H      -6.35944953     -0.90367295      0.51350272
H      -6.04031342     -2.36167582     -0.42400529
H      -4.55522264     -2.91393079      1.30692424
H      -4.56311437     -1.25411085      1.91103823
H      -2.90693326     -2.41879757     -0.35436754
H      -2.34297268     -1.43141601      1.00156731
