26
O=C(Oc1ccccc1)Oc1ccccc1
O      -0.10443069     -0.36275266     -0.55751020
C       0.07625090      0.26498750      0.47802046
O      -0.90547313      0.81403537      1.29121284
C      -2.19881208      0.58926930      0.81957543
C      -2.78281593      1.51696461     -0.04117965
C      -4.09256022      1.31185066     -0.47257425
C      -4.80720910      0.19560816     -0.03102611
C      -4.21674681     -0.71650609      0.84708518
C      -2.90737082     -0.51789636      1.28261515
O       1.30129848      0.56131232      1.05937016
C       2.38656606      0.06309861      0.33848946
C       2.86979739     -1.21230176      0.62559021
C       3.98378725     -1.68736683     -0.06502131
C       4.60947586     -0.88266237     -1.02034886
C       4.12675134      0.40135428     -1.28484183
C       3.01317184      0.88303884     -0.59817093
H      -2.22730174      2.38688118     -0.37710048
H      -4.55845241      2.02058656     -1.15227354
H      -5.82793905      0.03722393     -0.37057635
H      -4.77907125     -1.58070616      1.19103090
H      -2.44810177     -1.22078455      1.97052751
H       2.38559149     -1.83255600      1.37326797
H       4.36630773     -2.68388865      0.13985797
H       5.47702970     -1.25649920     -1.55874034
H       4.62033283      1.02480799     -2.02580858
H       2.63992411      1.88290131     -0.79607186
