24
CC(C)(C)CCCO
C      -2.19409078     -0.82028083     -0.77826165
C      -1.11355281      0.06867118     -0.13141477
C      -1.17943813      1.46281368     -0.77654890
C      -1.41840478      0.19071321      1.37070599
C       0.26751856     -0.59722966     -0.37229524
C       1.47538073      0.14792338      0.20283463
C       2.77530915     -0.59349446     -0.09175746
O       3.87583045      0.13297156      0.43881340
H      -2.19510661     -1.82454942     -0.33962631
H      -3.19483294     -0.39600724     -0.63822146
H      -2.02644182     -0.92615238     -1.85605747
H      -0.91940771      1.41861326     -1.83997515
H      -0.49684298      2.16789470     -0.29123808
H      -2.18791464      1.88530212     -0.69862316
H      -2.43680203      0.56065883      1.53684556
H      -0.73740122      0.88875535      1.86826841
H      -1.33215922     -0.78002691      1.87137422
H       0.41846158     -0.72093459     -1.45333044
H       0.25174539     -1.61105824      0.05035447
H       1.37719487      0.27034490      1.28711992
H       1.54624527      1.15876458     -0.21373402
H       2.77352296     -1.59391742      0.35282639
H       2.92913978     -0.69711997     -1.17033849
H       3.74204693      0.20734438      1.39908945
