51
CC12CCC3C(CCC4CC(O)CCC43C)C1CCC2=O
C      -2.80556584      1.29255695     -1.43742874
C      -2.90363421     -0.03099794     -0.65681810
C      -2.34566989     -1.19654047     -1.46501774
C      -0.81609599     -1.08650212     -1.60428258
C      -0.06815290     -0.89301896     -0.25284492
C      -0.71783335      0.22426171      0.62040179
C      -0.05975532      0.26370750      2.00037247
C       1.43467440      0.51579277      1.87715333
C       2.14203870     -0.55120810      1.02083455
C       3.66049754     -0.26188688      0.95502399
C       4.05649186      0.85508887     -0.01412128
O       3.71991953      2.13020591      0.52493277
C       3.39480228      0.71319323     -1.38035332
C       1.88347060      0.47277915     -1.29320826
C       1.49700416     -0.73272721     -0.39466719
C       2.05216639     -2.03521916     -1.03580157
C      -2.22065740     -0.05155340      0.72496180
C      -3.10093414      0.84569758      1.58886998
C      -4.51959752      0.39207292      1.21406705
C      -4.34341223     -0.15457347     -0.19238823
O      -5.25729853     -0.61021686     -0.86696417
H      -3.26185012      2.13008145     -0.89880069
H      -3.34253300      1.21031024     -2.39029691
H      -1.77511984      1.57492219     -1.66842325
H      -2.80483284     -1.23365680     -2.46045904
H      -2.59785067     -2.14980203     -0.98227147
H      -0.58838715     -0.25897236     -2.28312547
H      -0.46569605     -1.99818565     -2.09983544
H      -0.22566246     -1.83381746      0.29937551
H      -0.56288742      1.20047374      0.14797528
H      -0.50053871      1.06192353      2.60854101
H      -0.23362203     -0.67818361      2.53550083
H       1.57765374      1.51740943      1.46117986
H       1.87409216      0.53014337      2.88215470
H       2.02730688     -1.50144051      1.56331949
H       4.18141843     -1.17964474      0.65750009
H       4.02472018     -0.02259816      1.96218530
H       5.14471482      0.85133794     -0.14514673
H       4.18988888      2.22378966      1.37114211
H       3.56449993      1.62315447     -1.96924706
H       3.86600833     -0.10884696     -1.93093089
H       1.51522888      0.32203632     -2.31440771
H       1.40637678      1.38959385     -0.92961959
H       1.71028922     -2.91910504     -0.48539710
H       3.14454174     -2.07243960     -1.04799984
H       1.72929353     -2.14128641     -2.07649648
H      -2.32583540     -1.06388365      1.15306185
H      -2.95113978      1.90530131      1.35516241
H      -2.91795712      0.71148972      2.65948773
H      -5.22495124      1.22565764      1.22589824
H      -4.85962780     -0.41667390      1.86725166
