39
CC(C)(C)c1nc(-c2ccn[nH]2)c2c(N)c(C#N)c(N)nc2n1
C      -3.47956670      0.36377717      1.50738310
C      -3.01724918      0.65753466      0.07133423
C      -3.74083330     -0.29594475     -0.89986446
C      -3.40394725      2.10117681     -0.30419663
C      -1.50470638      0.46477305      0.00204574
N      -1.02850135     -0.74203959     -0.30468808
C       0.31188848     -0.89635901     -0.29243453
C       0.64381853     -2.29952538     -0.51046765
C       1.47260773     -3.18867557      0.14794613
C       1.31613621     -4.41255085     -0.52710366
N       0.43176869     -4.33007706     -1.52190905
N      -0.01542594     -3.06490504     -1.43968477
C       1.23039557      0.14849876     -0.05365935
C       2.67056057      0.17261310     -0.15089859
N       3.40451519     -0.97438664     -0.53327898
C       3.35613168      1.31601740      0.29943924
C       4.78620698      1.37040482      0.32647779
N       5.94739534      1.37864049      0.34333843
C       2.61432963      2.41751763      0.69283953
N       3.18888645      3.62395350      1.08601284
N       1.27497118      2.42566988      0.66021252
C       0.59628112      1.33862536      0.30923928
N      -0.71813791      1.48815560      0.34042231
H      -3.23269442     -0.66239033      1.80465190
H      -4.56382040      0.48786549      1.60753342
H      -2.99966466      1.03655296      2.22803248
H      -3.40200800     -0.14401780     -1.93151708
H      -4.82490272     -0.13514597     -0.87727303
H      -3.56414145     -1.34760612     -0.64526105
H      -3.04745200      2.35880507     -1.30853428
H      -4.49182699      2.23503461     -0.29110976
H      -2.97964205      2.83165968      0.39453346
H       2.11261474     -2.97949354      0.99427255
H       1.80674748     -5.35836012     -0.33442483
H      -0.77278555     -2.76987630     -2.04742668
H       2.93425033     -1.58277729     -1.20123896
H       4.37185971     -0.82226389     -0.81650001
H       2.43665590      4.25800655      1.35151189
H       3.87928473      3.53111265      1.82424457
