15
O=NN1CCCC1
O       2.99900655     -0.25880701      0.73138233
N       2.04488643      0.47783889      1.00438966
N       1.05667458      0.30430097      0.16059129
C      -0.07806828      1.20127398      0.38807300
C      -1.15136452      0.63538392     -0.52821150
C      -0.83587687     -0.85112443     -0.63557974
C       0.47220306     -1.04282670      0.12173713
H      -0.42413860      1.16706244      1.43051312
H       0.15140858      2.24193942      0.13287540
H      -2.15720006      0.81249892     -0.13466348
H      -1.09283685      1.09777608     -1.52087502
H      -0.72631764     -1.13433019     -1.68869452
H      -1.63500325     -1.46314462     -0.20455687
H       1.11754463     -1.76694847     -0.38815162
H       0.25908224     -1.42089321      1.13117080
