26
O=C(C(=O)c1ccccc1)c1ccccc1
O       0.48263238     -2.32116258     -0.63445060
C       0.61256688     -1.32387301      0.06627212
C      -0.53458344     -0.92347342      0.96445685
O      -0.36834780     -0.97233785      2.17790557
C      -1.80844668     -0.44764867      0.36473634
C      -2.83507681     -0.03404713      1.22534656
C      -4.04273554      0.43644655      0.70680495
C      -4.23166203      0.49617064     -0.67259052
C      -3.21595942      0.08448472     -1.53464082
C      -2.00494187     -0.38663242     -1.02032669
C       1.84092509     -0.48835536      0.02329186
C       2.86601231     -0.85774742     -0.85899637
C       4.03081934     -0.09329035     -0.94571316
C       4.17825824      1.04292173     -0.15244179
C       3.16392533      1.41523574      0.72890822
C       1.99568398      0.65354998      0.81879886
H      -2.70040720     -0.07821147      2.30481711
H      -4.83592661      0.75327780      1.37970680
H      -5.17366480      0.85942993     -1.07672959
H      -3.36901957      0.12512215     -2.61077238
H      -1.23950339     -0.71013664     -1.72129744
H       2.76364741     -1.74460847     -1.48216465
H       4.82319172     -0.38665531     -1.63012189
H       5.08705658      1.63666427     -0.21733336
H       3.28494062      2.29832594      1.35232260
H       1.23061531      0.96655066      1.52492120
