27
CCc1[nH]c(=O)[nH]c1C(=O)c1ccncc1
C       3.74147162      0.77221077     -0.34941314
C       2.64561423      0.15256611     -1.20340642
C       1.70879296     -0.67738812     -0.39223444
N       2.05625401     -1.95335741      0.00184717
C       1.01508894     -2.51277250      0.74652696
O       0.97537592     -3.60878710      1.26913372
N       0.02330908     -1.52931810      0.75957633
C       0.46483791     -0.42655780      0.05999159
C      -0.30600404      0.83110795     -0.09881252
O       0.24896213      1.91564477     -0.24631367
C      -1.78616404      0.77475886     -0.04509617
C      -2.46499376      1.84102604      0.54506998
C      -3.84516368      1.78908908      0.58175273
N      -4.56738017      0.76878838      0.07096378
C      -3.88656188     -0.23538232     -0.52046946
C      -2.50684867     -0.27914127     -0.60804549
H       4.40956445      1.37529627     -0.97262446
H       3.32024372      1.42417551      0.42333281
H       4.34509619      0.00328756      0.14446439
H       3.09997806     -0.46889005     -1.98469421
H       2.10528972      0.94717287     -1.72898776
H       2.93039211     -2.42574252     -0.17537055
H      -0.83966073     -1.62549964      1.27202857
H      -1.93311839      2.68941266      0.96382387
H      -4.42577545      2.58909895      1.03299315
H      -4.50245675     -1.02624550     -0.94065623
H      -2.02614351     -1.10455344     -1.12099751
