38
CCC1(CC)C(=O)N(c2ccccc2)N=C1OC(C)=O
C      -3.36039467     -1.09634823     -1.25346977
C      -1.87265462     -1.41033182     -1.15412595
C      -1.14198819     -0.82468433      0.07502277
C      -1.86949454     -1.05999336      1.40903378
C      -1.11351421     -0.58582027      2.64821692
C       0.25806695     -1.42599220      0.10186186
O       0.49809697     -2.60825842      0.29526874
N       1.12262143     -0.34757947     -0.14245992
C       2.53755100     -0.36447059     -0.23007927
C       3.24217140      0.82871780     -0.46484851
C       4.63739537      0.84052700     -0.55638058
C       5.35362615     -0.34339888     -0.41484040
C       4.67425199     -1.53576560     -0.18253099
C       3.27726531     -1.54599608     -0.09114253
N       0.47457852      0.86190420     -0.27911779
C      -0.78713578      0.62220981     -0.14754183
O      -1.81355119      1.48751206     -0.17672936
C      -1.55040401      2.80573925     -0.38356154
C      -2.84840703      3.56054987     -0.36451472
O      -0.47051965      3.34694672     -0.56239959
H      -3.91916239     -1.53404817     -0.42112287
H      -3.76675170     -1.52154066     -2.17738543
H      -3.55020130     -0.02042642     -1.27537510
H      -1.38697584     -1.05878629     -2.07460616
H      -1.76421601     -2.50302918     -1.15781475
H      -2.07931345     -2.13061948      1.52653942
H      -2.83737675     -0.54451070      1.40248674
H      -0.16247296     -1.11315694      2.76776748
H      -0.91277641      0.48906643      2.60913022
H      -1.71254339     -0.77888078      3.54431959
H       2.70929267      1.77097794     -0.57995114
H       5.15845377      1.77679447     -0.73818097
H       6.43795156     -0.33731903     -0.48544538
H       5.22825500     -2.46454232     -0.07128081
H       2.79422623     -2.50127158      0.09028368
H      -2.65295043      4.62400248     -0.53008050
H      -3.49978597      3.19832094     -1.16400415
H      -3.33121385      3.44350181      0.60905878
