29
O=P(O)(O)OC1OC(CO)C(O)C(O)C1O
O       3.04508146      2.06533247      0.86954639
P       2.92264499      0.65127376      1.32193326
O       3.51323542      0.44132677      2.78898826
O       3.76216495     -0.43101350      0.51240474
O       1.44535964      0.07850882      1.41472770
C       0.70206040     -0.08132210      0.21694348
O      -0.29852696     -1.05708964      0.51949662
C      -1.20686702     -1.32671769     -0.56295553
C      -2.16681290     -2.41742178     -0.08060021
O      -1.41900877     -3.59830253      0.22352885
C      -1.95715310     -0.06159304     -0.98685349
O      -2.79244209      0.42765033      0.06958589
C      -0.94760923      1.01834607     -1.35478023
O      -1.65133059      2.24269581     -1.62805079
C       0.07733972      1.25971298     -0.23894454
O       1.03167328      2.17600538     -0.80310068
H       3.37758319      1.23738078      3.33680633
H       3.91715438     -1.22489007      1.05712428
H       1.36111778     -0.48425204     -0.56128146
H      -0.61259601     -1.71937116     -1.39826580
H      -2.90094460     -2.67022976     -0.85114485
H      -2.69365408     -2.12293293      0.83277930
H      -0.75849107     -3.31430017      0.88476935
H      -2.61746215     -0.26843244     -1.83666818
H      -3.05829250      1.32756084     -0.21329445
H      -0.42962587      0.74046817     -2.28156829
H      -0.94757762      2.91552927     -1.73832223
H      -0.39252777      1.77414618      0.60768731
H       1.69550712      2.42193122     -0.12049104
