53
CCCCc1nc(Cl)c(CO)n1Cc1ccc(-c2ccccc2-c2nnnn2[K])cc1
C       6.22776781      2.34183555     -1.40536854
C       5.19517658      2.02335368     -0.34855664
C       3.79439800      2.28584657     -0.83699769
C       2.81581347      1.94259854      0.30373374
C       3.02391255      0.48615831      0.62282099
N       3.89543658     -0.02971845      1.49096952
C       3.80977111     -1.35980817      1.46038298
Cl      4.77127060     -2.47310717      2.43510220
C       2.84642141     -1.72659630      0.53891837
C       2.51259460     -3.13956885      0.25547117
O       1.55368423     -3.35093174     -0.68615070
N       2.37987280     -0.57184353      0.04283368
C       1.35805202     -0.45134173     -0.96167586
C      -0.03141329     -0.49991607     -0.44467807
C      -0.95199240     -1.41833313     -0.97815454
C      -2.22676539     -1.54022792     -0.54173404
C      -2.70166130     -0.74661073      0.47776529
C      -4.06091204     -0.88256869      0.94377110
C      -4.43086952     -1.91180323      1.76426877
C      -5.72020161     -2.06200172      2.23077772
C      -6.67950907     -1.15277951      1.86618988
C      -6.29269757     -0.10358445      1.02588524
C      -5.01654246      0.07116930      0.54840898
C      -4.52608205      1.15235204     -0.26465364
N      -3.41272364      1.03034656     -1.07897271
N      -3.15735777      2.16658595     -1.67006104
N      -4.05621269      3.02327253     -1.27432967
N      -4.89032306      2.39502328     -0.41287972
K      -6.73603798      3.62409295      0.70236202
C      -1.81797358      0.16053917      1.01575415
C      -0.50752986      0.27988138      0.56156066
H       7.09344728      2.88563437     -0.98236907
H       5.81130820      2.99846917     -2.19465169
H       6.62829784      1.44637078     -1.90607969
H       5.30518341      0.93761958     -0.13414021
H       5.38142099      2.62137684      0.54922089
H       3.61938596      3.34205878     -1.08833710
H       3.57704877      1.62125855     -1.67114614
H       1.79903762      2.18933241      0.01072042
H       3.14291341      2.53586171      1.15869946
H       2.29651501     -3.62816862      1.23398838
H       3.44453146     -3.66394793     -0.11448713
H       1.88667550     -3.53539362     -1.59543120
H       1.45567151      0.54936676     -1.45816928
H       1.47174162     -1.19069468     -1.78233525
H      -0.58094581     -2.04886843     -1.79121919
H      -2.90511418     -2.26701552     -0.98513164
H      -3.66351426     -2.64247662      2.05607136
H      -5.99847688     -2.87572489      2.87699470
H      -7.70006333     -1.21757786      2.19851599
H      -7.06780213      0.56747152      0.72205924
H      -2.12147091      0.81378133      1.81811359
H       0.15684243      0.99895196      1.02153767
