23
CCCOP(=O)(OC)OC
C       3.79631269     -0.20503509     -0.12740407
C       2.47090755      0.35530798     -0.61075771
C       1.30661952     -0.12828471      0.24183541
O       0.11012315      0.43581103     -0.26724571
P      -1.25718305     -0.00242346      0.46134473
O      -1.27769190      0.19364073      1.94446610
O      -1.46827097     -1.52107687     -0.03044645
C      -2.61502279     -2.18569537      0.45720313
O      -2.38550512      0.80997630     -0.35089266
C      -2.44211336      2.20282415     -0.12408188
H       3.79740224     -1.29899473     -0.16687599
H       4.61426075      0.15831896     -0.75730764
H       3.99934015      0.10200197      0.90352307
H       2.30482450      0.06896840     -1.65623525
H       2.50412319      1.45139040     -0.60030074
H       1.23659181     -1.22072272      0.21023682
H       1.43753819      0.18668464      1.28247629
H      -3.51973827     -1.63883299      0.17832679
H      -2.65622864     -3.18454625      0.01565097
H      -2.55935800     -2.28266005      1.54476586
H      -1.48478839      2.66850648     -0.37315779
H      -3.21937055      2.63105828     -0.76193171
H      -2.69277271      2.40378291      0.92094367
