33
Cc1c2ccccc2cc2c1c(F)cc1ccccc12
C      -2.36675034     -2.27433518      0.47774412
C      -1.59459371     -0.99434911      0.21781082
C      -2.29297626      0.22826262     -0.03732274
C      -3.70451096      0.38675963     -0.02432370
C      -4.32371895      1.61113925     -0.29406363
C      -3.55208277      2.72329883     -0.58383498
C      -2.16573784      2.60585671     -0.59554887
C      -1.53309602      1.37849330     -0.32232708
C      -0.13314815      1.30750618     -0.33255931
C       0.59739268      0.13230465     -0.04994457
C      -0.15208917     -1.03761288      0.24356194
C       0.59113833     -2.19957758      0.55475806
F      -0.02505610     -3.34686453      0.88189766
C       1.98022868     -2.23784065      0.56220517
C       2.71859825     -1.10223055      0.25918171
C       4.12280507     -1.17314845      0.27093789
C       4.89919124     -0.05761094     -0.02342233
C       4.27666306      1.14037986     -0.33203430
C       2.87955583      1.21778638     -0.34488744
C       2.04684160      0.10417342     -0.05109235
H      -2.26278739     -2.56815082      1.52707578
H      -3.43270323     -2.20552017      0.26021809
H      -2.00371911     -3.07405591     -0.17671541
H      -4.36313812     -0.44418945      0.20817969
H      -5.40764765      1.68748304     -0.27367671
H      -4.02284579      3.67917442     -0.79520049
H      -1.57462616      3.49193468     -0.81922961
H       0.39955111      2.22690233     -0.56153026
H       2.46476183     -3.17749492      0.81322394
H       4.62647084     -2.10755017      0.51218239
H       5.98342321     -0.12616216     -0.01100126
H       4.87095171      2.02041485     -0.56440587
H       2.45365428      2.18482332     -0.59585634
