56
CCCCC(CC)CCCCCC(C)CCCC(=O)O
C      -5.81414178      1.57721744     -0.74594044
C      -5.13202819      1.58391325      0.61331755
C      -5.20403072      0.23830349      1.33920079
C      -4.56101446     -0.94707571      0.60544162
C      -3.07672296     -0.77811526      0.19481390
C      -2.56227885     -2.03543624     -0.54606541
C      -3.33727484     -2.37669006     -1.81257973
C      -2.19682257     -0.46375124      1.42976142
C      -0.69747956     -0.26248458      1.16799765
C      -0.40300717      0.86587910      0.17638225
C       1.08731139      1.21522449      0.07901441
C       1.93321762      0.07911410     -0.50770272
C       3.41920291      0.42225348     -0.76402477
C       3.56969689      1.52116290     -1.81876007
C       4.15615868      0.76841897      0.54559631
C       5.67190958      0.98966350      0.42370761
C       6.46212291     -0.19037211     -0.14031819
C       6.41995540     -1.40417885      0.74849778
O       6.19083194     -1.43933981      1.94492933
O       6.71747053     -2.53336322      0.07603823
H      -5.81255420      2.58575883     -1.17172825
H      -6.85428442      1.24698156     -0.66178941
H      -5.29784964      0.91937317     -1.45122679
H      -4.09048114      1.90258645      0.49803266
H      -5.61773964      2.33995652      1.24213259
H      -6.25859930     -0.00662148      1.52076968
H      -4.75303794      0.34656403      2.33226317
H      -5.16809839     -1.15314011     -0.28264083
H      -4.65490986     -1.83368083      1.24618206
H      -3.01365745      0.06505306     -0.50297594
H      -2.57772085     -2.90017574      0.12831818
H      -1.51913729     -1.88489752     -0.84397500
H      -3.41784524     -1.50674053     -2.47175398
H      -4.34344895     -2.74006532     -1.58562508
H      -2.82221381     -3.17142172     -2.36234092
H      -2.30922474     -1.27181588      2.16418620
H      -2.56259239      0.44691967      1.91743604
H      -0.21764840     -0.02903505      2.12701977
H      -0.25106200     -1.20187278      0.82718104
H      -0.94534880      1.76695825      0.48861439
H      -0.77361705      0.60200991     -0.82052720
H       1.17826510      2.10689591     -0.55087470
H       1.45562519      1.48805885      1.07406903
H       1.89652791     -0.78624980      0.16499223
H       1.48322518     -0.24874776     -1.45378226
H       3.86383438     -0.49050818     -1.17971330
H       3.28404244      2.50202659     -1.42594141
H       2.94804759      1.30905589     -2.69510157
H       4.60527509      1.59068506     -2.16667161
H       3.96879094     -0.02476972      1.27950893
H       3.72968851      1.68415842      0.97324297
H       5.86145622      1.87063114     -0.20054351
H       6.05909741      1.23789167      1.42034082
H       7.51454446      0.09772444     -0.24341179
H       6.09286055     -0.45627695     -1.13545811
H       6.67671377     -3.23361369      0.76073179
