22
Clc1ccc(-c2ccc(Cl)cc2Cl)cc1
Cl      5.22622947      0.51476786     -0.17705910
C       3.51551276      0.34496802     -0.11467711
C       2.71045629      1.47741989     -0.02012048
C       1.32041038      1.33886505      0.02947348
C       0.72365810      0.06822630     -0.01252235
C      -0.73833092     -0.07403334      0.03126734
C      -1.48370071      0.19159564     -1.13269427
C      -2.87537595      0.06745642     -1.14106701
C      -3.54071616     -0.32352258      0.01713355
Cl     -5.25409838     -0.47593224      0.00613520
C      -2.83024412     -0.59071828      1.18334353
C      -1.43717525     -0.46624070      1.19040465
Cl     -0.61736175     -0.79890503      2.67853028
C       1.55331473     -1.06070380     -0.11088065
C       2.94348668     -0.92385012     -0.16049747
H       3.15528064      2.46813316      0.01806932
H       0.70241710      2.23135085      0.10880064
H      -0.97529575      0.49456449     -2.04729498
H      -3.42989623      0.27605661     -2.05273517
H      -3.35690282     -0.89265101      2.08477279
H       1.11846235     -2.05797126     -0.14580042
H       3.56986955     -1.80887592     -0.23258178
