30
CCOC(=O)n1c(-c2cscn2)nc2ccccc21
C       4.26190897     -0.12659495     -0.43621511
C       3.07580791      0.62609295     -1.00668032
O       1.88338780      0.07886009     -0.43262626
C       0.74287623      0.67865351     -0.86238352
O       0.65905844      1.57763734     -1.68379212
N      -0.38437248      0.08555024     -0.27683743
C      -1.64535899      0.65380069     -0.15754202
C      -2.01125324      2.17853707     -0.27172175
C      -3.32117709      2.61179429     -0.20114119
S      -3.38031800      4.31984914     -0.33167976
C      -1.66892775      4.34457189     -0.43620497
N      -1.06615319      3.17850175     -0.36980304
N      -2.56036399     -0.24015843      0.16785157
C      -1.86989598     -1.38225453      0.44344830
C      -2.36327224     -2.61459382      0.89992486
C      -1.46737556     -3.66235015      1.12911443
C      -0.10475462     -3.48842843      0.90063596
C       0.40343757     -2.26881774      0.43681338
C      -0.50458767     -1.21614300      0.22296298
H       4.18575872     -1.19506547     -0.66370547
H       4.28813945     -0.03474405      0.65464805
H       5.20080678      0.25603844     -0.84593041
H       3.05100040      0.50635105     -2.09561560
H       3.15485257      1.68922884     -0.75315663
H      -4.21680211      2.01626276     -0.09289359
H      -1.12160571      5.27199091     -0.54319641
H      -3.42661674     -2.74140610      1.07368455
H      -1.84014765     -4.61951455      1.48590554
H       0.57808743     -4.31714468      1.07906549
H       1.46786078     -2.16650508      0.25272884
