52
O=C(NCc1ccc(C(F)(F)F)cc1)C1c2ccccc2C(=O)N1CCc1ccccn1
O       1.55272840     -3.12906629      1.73247287
C       0.90988117     -2.43047287      0.94996711
N       1.37583525     -1.22822435      0.46856458
C       2.66094833     -0.68917947      0.83590181
C       2.68764148      0.79550400      0.58883695
C       3.42612280      1.33964176     -0.46872552
C       3.41614350      2.71795584     -0.70356273
C       2.66858602      3.57876682      0.11536263
C       2.64967887      5.06113049     -0.16278541
F       1.98996019      5.78929355      0.78128162
F       3.90173417      5.59691749     -0.23319240
F       2.05153539      5.36027595     -1.34971816
C       1.92657487      3.03110720      1.17230489
C       1.93652738      1.65487855      1.40675366
C      -0.44990319     -2.87499039      0.37101981
C      -0.29162532     -3.91485396     -0.70127187
C       0.34313233     -5.14540079     -0.65782096
C       0.33428858     -5.93555459     -1.81236368
C      -0.31337631     -5.49989749     -2.98350215
C      -0.96601025     -4.26640342     -3.01652426
C      -0.93152543     -3.49889091     -1.86699217
C      -1.54549837     -2.19078667     -1.61636249
O      -2.27196036     -1.60650085     -2.39695029
N      -1.16926653     -1.80107279     -0.33747050
C      -1.86151640     -0.74431958      0.39637527
C      -1.70379779      0.63713613     -0.24490588
C      -2.33431288      1.70342929      0.61146720
C      -3.51409418      2.32692650      0.21569094
C      -4.06288113      3.31123171      1.03278144
C      -3.41897288      3.64840550      2.21613776
C      -2.24906192      2.98150671      2.53716630
N      -1.69670831      2.01803917      1.76769663
H       0.88174646     -0.81358723     -0.31373171
H       3.41902963     -1.20632050      0.23627205
H       2.87438711     -0.90487633      1.88911009
H       4.00480243      0.69439516     -1.12926081
H       3.99464543      3.12262323     -1.53572023
H       1.32403828      3.67039459      1.81675884
H       1.33532732      1.25155812      2.22109656
H      -1.09461220     -3.24375711      1.17591487
H       0.84315127     -5.49126772      0.24322497
H       0.83733878     -6.90203723     -1.80779136
H      -0.31079106     -6.13552707     -3.86685454
H      -1.48138616     -3.91765329     -3.90576137
H      -2.92194690     -1.01989518      0.45389470
H      -1.46714930     -0.73144038      1.41989167
H      -2.13387923      0.65622120     -1.25384203
H      -0.64026790      0.88216877     -0.36631320
H      -4.00405812      2.05454347     -0.71383728
H      -4.98570867      3.80814563      0.74515613
H      -3.81683518      4.41395370      2.87123747
H      -1.70863947      3.21582593      3.45060361
