35
O=P(OC(CCl)CCl)(OC(CCl)CCl)OC(CCl)CCl
O       0.37844571      2.41175435     -0.23144539
P       0.17580394      0.94250675     -0.39338971
O       1.50360168      0.05263258     -0.23683412
C       2.28597878      0.21189153      0.94761120
C       3.76645805      0.25919890      0.56506350
Cl      4.14291691      1.76625143     -0.31728145
C       1.98159984     -0.93257293      1.92179059
Cl      2.38111803     -2.53636145      1.24793495
O      -0.81911101      0.27329023      0.67750349
C      -1.98086657      0.99912461      1.09384180
C      -1.62084223      2.06476082      2.14383785
Cl     -0.74686852      1.37311737      3.54293630
C      -2.99891387     -0.02198419      1.61454915
Cl     -4.59054180      0.70980367      1.91746069
O      -0.41255612      0.50179106     -1.82300706
C      -0.49797708     -0.88293758     -2.16770487
C      -1.77038257     -1.09299999     -2.99619227
Cl     -3.23321098     -0.74592831     -2.03352601
C       0.74463203     -1.25337927     -2.98709246
Cl      0.84445492     -3.00091415     -3.30045306
H       2.01436153      1.15141173      1.44476973
H       4.04138330     -0.56012118     -0.10497741
H       4.40892313      0.23584261      1.44989658
H       2.54752193     -0.81502026      2.85079828
H       0.91759419     -0.96468018      2.16641910
H      -2.40087130      1.49957823      0.21266219
H      -0.96042467      2.82728351      1.72916077
H      -2.50776090      2.57687872      2.52665953
H      -2.66122819     -0.50103698      2.53877855
H      -3.13878124     -0.83014897      0.89132748
H      -0.54203482     -1.48909651     -1.25473532
H      -1.79679262     -0.41408900     -3.85423676
H      -1.86709279     -2.12100553     -3.35360537
H       0.74555680     -0.73331500     -3.95134450
H       1.66590653     -0.96152662     -2.47717596
