30
O=C1C=CN(C2OC(CO)C(O)C2O)C(=O)C1
O      -4.89848261      0.42649134      1.07038555
C      -3.71495310      0.13527494      0.90904750
C      -2.68905296      1.14517462      1.19138799
C      -1.40400922      0.84510198      1.00710310
N      -0.95214198     -0.37707786      0.54827172
C       0.48963241     -0.64129476      0.37963893
O       1.27978613      0.42228866      0.94867072
C       2.36890727      0.72368622      0.03485762
C       2.10941090      2.12255462     -0.53006681
O       2.10511324      3.08287544      0.52602959
C       2.36753241     -0.35401070     -1.03894691
O       3.15753274     -1.47148491     -0.60836180
C       0.91086000     -0.77160454     -1.09834345
O       0.81410194     -2.08618979     -1.64903932
C      -1.81406304     -1.41768846      0.22397038
O      -1.39994016     -2.48364842     -0.24200744
C      -3.28770018     -1.21670744      0.44147834
H      -3.02210062      2.11065927      1.55162929
H      -0.65779421      1.60317454      1.23102863
H       0.72307471     -1.56270503      0.92895384
H       3.28903956      0.72136212      0.62935488
H       2.88230844      2.40988461     -1.24876430
H       1.13201949      2.18217842     -1.01904509
H       1.72838574      2.63693383      1.30855450
H       2.76800488     -0.02746832     -2.00288171
H       2.81267856     -2.23824900     -1.11401511
H       0.33761720     -0.08173107     -1.72850985
H      -0.02968652     -2.47604499     -1.32375913
H      -3.78998199     -1.41177359     -0.51241083
H      -3.61609904     -1.94996175      1.18578920
