60
CCCCCCCCN.CCCCOP(=O)(S)OCCCC
C      -4.12024663      0.12221569      0.59722949
C      -3.57795048      0.04740876     -0.82158584
C      -2.20287584     -0.61682627     -0.91534516
C      -1.09311135      0.18632607     -0.23280817
C       0.27312178     -0.47152303     -0.44069935
C       1.38680190      0.32796977      0.23985822
C       2.75104884     -0.33741215      0.03383513
C       3.89187611      0.36892657      0.76940792
N       4.15565142      1.69982231      0.23541148
C       3.29853723     -1.44129743     -0.63346510
C       2.76655498     -1.00574060      0.72280291
C       3.02517516      0.47182791      1.03563746
C       2.37152634      1.44487991      0.05960426
O       0.97713007      1.20117271      0.01266642
P       0.13716298      1.89813658     -1.17939275
O       0.73775755      1.64371447     -2.53211954
S      -0.07499919      3.93757263     -0.82690659
O      -1.30234351      1.18102902     -1.01219110
C      -1.37416176     -0.19585140     -1.34530308
C      -2.73578847     -0.74771863     -0.93835820
C      -2.94780188     -0.69508514      0.57649489
C      -4.29549698     -1.28083185      0.96882174
H      -5.14231390      0.51472439      0.58795781
H      -3.51694207      0.78612996      1.22323378
H      -4.14238661     -0.86838282      1.06234577
H      -3.53611784      1.05537468     -1.25033342
H      -4.28350854     -0.52783871     -1.43297913
H      -1.95460643     -0.74004862     -1.97698616
H      -2.25075593     -1.62405609     -0.48350136
H      -1.07505091      1.20567069     -0.63689116
H      -1.29254935      0.26574831      0.84178462
H       0.48339296     -0.55160339     -1.51415902
H       0.25329298     -1.49141967     -0.03794177
H       1.39735752      1.34554604     -0.16681395
H       1.17679688      0.40886052      1.31332651
H       2.70180475     -1.37253956      0.39508866
H       2.97834196     -0.39064806     -1.03849786
H       3.66506906      0.44087340      1.83894888
H       4.80281291     -0.23134328      0.66911372
H       3.34776451      2.30129372      0.38663480
H       4.92328229      2.12433658      0.75436551
H       4.36587302     -1.21727852     -0.72625119
H       2.76675970     -0.94554880     -1.45107342
H       3.16633300     -2.52071327     -0.75956792
H       3.24762174     -1.61316538      1.49922053
H       1.69309608     -1.22155053      0.77847598
H       2.63413929      0.66954858      2.04123853
H       4.10421990      0.66111849      1.06656117
H       2.80904441      1.34150336     -0.93774899
H       2.53993500      2.47242016      0.39741890
H      -0.78811837      4.15918890     -1.93703361
H      -0.57344472     -0.74708091     -0.83927516
H      -1.23892958     -0.30374383     -2.42708171
H      -2.82265601     -1.78267987     -1.28806678
H      -3.52475111     -0.16326973     -1.42668328
H      -2.15213276     -1.25324531      1.08399867
H      -2.89387177      0.34095633      0.93022415
H      -4.43374448     -1.22418343      2.05354087
H      -5.11508899     -0.73201663      0.49267523
H      -4.36753683     -2.33206781      0.67173497
