29
O=P(O)(O)OC1C(O)C(O)C(O)C(O)C1O
O      -2.41799492      3.41178044     -1.49916746
P      -2.14587405      1.95257030     -1.42156428
O      -2.31056398      1.18746929     -2.81571285
O      -3.11787473      1.10727873     -0.48521520
O      -0.65806981      1.53219195     -0.99774641
C      -0.41882001      0.20598215     -0.53305093
C       0.90912081     -0.27879859     -1.12643140
O       1.95870485      0.65117985     -0.78171659
C       1.27750081     -1.65903719     -0.55928067
O       2.52397052     -2.08831165     -1.11047144
C       1.37018202     -1.62268546      0.97814756
O       2.43641548     -0.76720258      1.43637961
C       0.05514171     -1.11349217      1.58494750
O       0.18826911     -0.95640228      3.00580762
C      -0.36201000      0.24629505      1.00403824
O      -1.65158308      0.61509637      1.54291793
H      -3.09898042      1.51989503     -3.28284511
H      -2.86374689      1.19583084      0.46387793
H      -1.22461638     -0.45917980     -0.86627599
H       0.87015765     -0.30519752     -2.22106943
H       1.67314628      1.51045786     -1.15976800
H       0.52022858     -2.39174983     -0.86128949
H       3.18530089     -1.41106572     -0.86943694
H       1.60880642     -2.61715282      1.37027141
H       2.55570266     -0.05154907      0.77313696
H      -0.74639229     -1.84353428      1.42249506
H       1.13813230     -0.76623211      3.16392427
H       0.31994055      1.03663309      1.34140516
H      -1.57419407      0.41723008      2.50369293
