52
COc1cccc(-c2cccc(C3(C4CCOCC4)N=C(C)C(N)=N3)c2)c1
C       4.40374833     -0.80073125      2.93742547
O       5.30475856     -0.41818256      1.90562975
C       4.79238420     -0.32903480      0.63995449
C       5.71860468      0.03280318     -0.33926501
C       5.32900763      0.15694003     -1.67143431
C       4.00272606     -0.08113639     -2.03221987
C       3.04891833     -0.44447870     -1.06836364
C       1.64811710     -0.69517525     -1.44640494
C       1.32331613     -1.63169257     -2.43788009
C      -0.00560928     -1.87562242     -2.78370135
C      -1.03336951     -1.18580660     -2.14112182
C      -0.75455522     -0.23903594     -1.14265366
C      -1.88185268      0.51614692     -0.42653815
C      -2.39334425     -0.19469303      0.86989335
C      -1.33223291     -0.31943208      1.98003959
C      -1.92940971     -0.98477453      3.21411541
O      -2.46636804     -2.26617784      2.89102918
C      -3.51800111     -2.18157094      1.93043234
C      -3.01410010     -1.58263426      0.62265214
N      -1.41784973      1.88439873     -0.02424558
C      -2.18645339      2.67894618     -0.68757272
C      -2.13424359      4.16202571     -0.66437495
C      -3.19450599      1.94669005     -1.49661258
N      -4.13392782      2.53290089     -2.28827962
N      -3.06366838      0.67582197     -1.33802750
C       0.59587263     -0.00744434     -0.81500516
C       3.46505392     -0.56492673      0.27197937
H       4.96453940     -0.82961505      3.87664564
H       4.00171533     -1.80359324      2.75921326
H       3.60014406     -0.06579889      3.05249515
H       6.75260030      0.21870088     -0.05971912
H       6.05682617      0.44119796     -2.42634790
H       3.71093168      0.03045803     -3.07447439
H       2.10956259     -2.19207231     -2.93925712
H      -0.24155440     -2.60934585     -3.54976209
H      -2.06375297     -1.39555216     -2.42184384
H      -3.19737301      0.43845957      1.27772630
H      -0.93069702      0.66132979      2.25521611
H      -0.49884436     -0.93771391      1.62774724
H      -2.71239089     -0.36317599      3.66423776
H      -1.15086918     -1.13184397      3.96951130
H      -3.88976237     -3.19613494      1.75491526
H      -4.34552860     -1.59452012      2.34593485
H      -3.84124051     -1.52358546     -0.09236550
H      -2.25717404     -2.25726000      0.20681597
H      -1.33594410      4.49989646      0.00185151
H      -3.08803338      4.55815415     -0.30634026
H      -1.93934051      4.53894279     -1.67169866
H      -3.87029018      3.39691984     -2.74684371
H      -4.56601281      1.86884009     -2.92413861
H       0.83334746      0.73252509     -0.05091137
H       2.72612548     -0.85766080      1.01194211
