24
N=C(N)N.N=C(N)N.O=C(O)O
N       0.31276624      1.47404569      0.01824833
C       0.11476912      0.21223881     -0.01005904
N       1.13088609     -0.65628036     -0.12492045
N      -1.07844410     -0.39563015      0.07180572
N      -1.30162301     -0.74656691     -0.12858599
C      -0.23145598     -0.05581715     -0.02975602
N       0.99163981     -0.53952444      0.23487135
N      -0.23822845      1.27683315     -0.18470845
O      -1.43094436     -0.57963686     -0.34877001
C      -0.29828970     -0.28173750     -0.03851928
O       0.64637919     -1.06515155      0.47386212
O       0.21174138      0.94512122     -0.16739248
H      -0.57821522      1.96037242      0.13091810
H       2.01208317     -0.15848470     -0.03339001
H       1.08005865     -1.40526679      0.55445950
H      -1.87202919      0.20475447     -0.11245726
H      -1.12187476     -1.23574939     -0.49460489
H      -1.09306726     -1.73169079      0.04197659
H       1.72069429     -0.02913562     -0.25143237
H       1.09205741     -1.53623194      0.09105687
H      -1.19845968      1.60583825     -0.23368309
H       0.25844288      1.75629545      0.55593614
H       1.41091300     -0.46807988      0.58594832
H      -0.53979951      1.44948457     -0.54580230
