39
CN(C)P(=O)(N(C)C)n1nc(-c2ccccc2)nc1N
C      -3.16692775     -1.70044877      1.06182484
N      -2.81333930     -0.75145103      0.00977974
C      -2.28365394     -1.47667086     -1.14292128
P      -1.98334178      0.60744104      0.50326259
O      -2.48404718      1.19161947      1.80633061
N      -2.09174419      1.69711378     -0.75866880
C      -1.26727216      2.89883915     -0.63538405
C      -3.45079929      2.09904868     -1.12220127
N      -0.35501702      0.19618628      0.86884101
N       0.53686810     -0.00534414     -0.15058703
C       1.66442411     -0.31048653      0.50676895
C       2.93351324     -0.60652774     -0.15383934
C       3.04905333     -0.56049817     -1.55146430
C       4.26690399     -0.84488135     -2.17529068
C       5.38204413     -1.17834283     -1.40896879
C       5.28208534     -1.22797313     -0.01993086
C       4.06453605     -0.94353121      0.60421484
N       1.53375332     -0.32665895      1.87533359
C       0.27836092     -0.02572117      2.08056086
N      -0.33959877      0.06247400      3.27429019
H      -3.69831481     -1.19142379      1.87232541
H      -2.27800077     -2.17958892      1.48531021
H      -3.84101572     -2.47813909      0.68641047
H      -2.07366563     -0.79291954     -1.97122748
H      -1.35919363     -2.00955840     -0.89802415
H      -3.01386385     -2.20324414     -1.51605684
H      -0.21598653      2.63913579     -0.48323515
H      -1.58727013      3.51858481      0.20917069
H      -1.30651467      3.50220218     -1.54911509
H      -3.45298467      2.71798728     -2.02631455
H      -4.06929979      1.22449852     -1.34618129
H      -3.93368569      2.65702127     -0.31273689
H       2.18865553     -0.30123312     -2.16518132
H       4.34274493     -0.80532149     -3.25884092
H       6.32921098     -1.39958502     -1.89421048
H       6.15028416     -1.48800214      0.58011824
H       4.00243890     -0.98716513      1.69008680
H       0.26140651      0.16720483      4.08662300
H      -1.20074627      0.61535958      3.33912852
