20
O=C(S)CCCCC(=O)S
O       3.15275636     -1.35625523     -0.94081979
C       3.14275624     -0.32853508     -0.27832754
S       4.65171596      0.43564398      0.19371015
C       1.90020696      0.38885888      0.20087952
C       0.62531021     -0.32821785     -0.24396599
C      -0.62531005      0.40250732      0.24396266
C      -1.90020665     -0.31457302     -0.20087604
C      -3.14275555      0.40281704      0.27833755
O      -3.15275593      1.43053354      0.94083483
S      -4.65171509     -0.36136357     -0.19369814
H       5.42681028     -0.47822184     -0.40581961
H       1.90767345      1.40837002     -0.20189990
H       1.92798884      0.44339766      1.29538641
H       0.60638101     -0.40184856     -1.33855860
H       0.62647058     -1.35559589      0.14126944
H      -0.60637819      0.47614497      1.33855435
H      -0.62647400      1.42988217     -0.14127986
H      -1.92799474     -0.36911188     -1.29538292
H      -1.90766949     -1.33408544      0.20190161
H      -5.42681021      0.55252620      0.40579186
