63
CCCCN(CCCC)C(=S)SCSC(=S)N(CCCC)CCCC
C       6.66942093     -2.40853118      0.68665420
C       5.32616411     -2.99520420      0.27429951
C       4.16216006     -2.52587226      1.15424006
C       3.79482997     -1.04132902      1.01254593
N       3.21755396     -0.70888222     -0.30816743
C       4.14106592     -0.06251467     -1.26316295
C       3.89124859      1.44724189     -1.39906268
C       4.18704649      2.26920782     -0.14161795
C       5.66699134      2.34208784      0.19537612
C       1.90324074     -1.04661733     -0.68402003
S       1.30539506     -1.08660756     -2.26207669
S       0.77854806     -1.43267903      0.62260800
C       0.30192590      0.26940391      1.03350544
S      -1.31849692      0.30350698      1.84629004
C      -2.11571373      1.45062437      0.75606911
S      -1.93443649      3.09243418      1.09053686
N      -2.83336382      0.90084500     -0.32478382
C      -3.29222061      1.73121529     -1.45755828
C      -4.81223581      1.86396963     -1.58589080
C      -5.46118657      2.60071570     -0.41254555
C      -6.96680022      2.71260498     -0.59648070
C      -3.15033347     -0.53959136     -0.43379264
C      -4.30699440     -0.96031602      0.48347176
C      -4.50104321     -2.47561681      0.47214256
C      -5.64828192     -2.89464808      1.37999057
H       7.46802612     -2.82291726      0.06188389
H       6.89796010     -2.65119946      1.72978162
H       6.69007554     -1.32101360      0.57661787
H       5.12731121     -2.77120751     -0.77980549
H       5.39733197     -4.08812512      0.34857629
H       3.28760406     -3.14576348      0.92357821
H       4.41075014     -2.72211962      2.20571338
H       4.66646426     -0.40574956      1.20034528
H       3.07902016     -0.77860942      1.79834877
H       4.02793834     -0.53300423     -2.24653884
H       5.17582793     -0.26125679     -0.96792212
H       2.84598204      1.62334142     -1.67782324
H       4.49836791      1.83317480     -2.22929672
H       3.82508969      3.29151122     -0.30457123
H       3.63149656      1.87634917      0.71711661
H       6.08887445      1.35223285      0.38971052
H       5.81896874      2.95288912      1.08905503
H       6.22976430      2.80109828     -0.62493228
H       0.29993926      0.89569022      0.13496449
H       1.04354840      0.68711990      1.72332036
H      -2.84326161      2.72770999     -1.43199221
H      -2.90093293      1.26237184     -2.37079656
H      -5.26920384      0.87512573     -1.70655534
H      -5.02361989      2.41383122     -2.51293087
H      -5.25699880      2.07490062      0.52753951
H      -5.03702289      3.60832478     -0.32326493
H      -7.21201743      3.25230587     -1.51667115
H      -7.42603651      1.72046928     -0.64561079
H      -7.41391263      3.25152399      0.24639655
H      -2.25380239     -1.13048389     -0.21525336
H      -3.40445034     -0.76797780     -1.47813254
H      -4.13040918     -0.62818594      1.51384977
H      -5.23514820     -0.47328811      0.16095282
H      -4.70376837     -2.81808474     -0.55041047
H      -3.57924485     -2.96937699      0.80423494
H      -5.47534569     -2.57250928      2.41168304
H      -6.59403880     -2.45990528      1.03986886
H      -5.75561084     -3.98464005      1.37863923
