45
COc1cc(NS(=O)(=O)c2ccccc2)c2c(c1N)C(=O)c1ccccc1C2=O
C       0.78553139      5.13098280      0.16494211
O      -0.32163952      4.36708419     -0.30118055
C      -0.40960636      3.06505096      0.13315081
C       0.35196869      2.52498252      1.16814425
C       0.21330520      1.18015051      1.51777293
N       1.10953104      0.64151388      2.50593053
S       2.74019983      0.43842543      2.05669031
O       3.36615415     -0.36147600      3.08707748
O       3.28308831      1.72536795      1.67346094
C       2.62345802     -0.56245695      0.58837919
C       2.64309835      0.04521531     -0.67126383
C       2.51490716     -0.74337238     -1.81412345
C       2.38471465     -2.12839654     -1.69656878
C       2.39105083     -2.73220635     -0.43789455
C       2.51716913     -1.95105743      0.71039114
C      -0.72524597      0.36845275      0.85213168
C      -1.50468041      0.90714364     -0.17754615
C      -1.36504337      2.26704142     -0.53617487
N      -1.97680833      2.79031755     -1.69872944
C      -2.49675301      0.04151099     -0.86907886
O      -3.35187254      0.51490298     -1.61118754
C      -2.47258257     -1.41426480     -0.63938192
C      -3.25646896     -2.26108933     -1.43339551
C      -3.24658509     -3.63842875     -1.20653926
C      -2.46145065     -4.17165674     -0.18490111
C      -1.68537147     -3.32816525      0.61126737
C      -1.69125622     -1.94678133      0.37933168
C      -0.88061906     -1.05689002      1.22520306
O      -0.33141279     -1.50040705      2.22983058
H       0.77711686      6.08781197     -0.36587945
H       0.69009827      5.34346120      1.23454791
H       1.73568904      4.63421081     -0.05859213
H       1.07528611      3.12809987      1.70935647
H       0.77397845     -0.23556859      2.93630300
H       2.75035022      1.12339290     -0.77081823
H       2.52314775     -0.27984931     -2.79827520
H       2.29063824     -2.74092347     -2.59065050
H       2.30161643     -3.81270569     -0.35270413
H       2.51709942     -2.42537240      1.68991772
H      -2.06505743      3.80381890     -1.66643821
H      -2.84572013      2.30470699     -1.94491128
H      -3.87727821     -1.85177158     -2.22877842
H      -3.85582247     -4.29459126     -1.82461247
H      -2.45772649     -5.24463768     -0.00507195
H      -1.08019646     -3.75157660      1.41086865
