50
CC(C(=O)OCC(=O)N(C)CC(N)=O)c1cccc(C(=O)c2ccccc2)c1
C      -0.94819931      2.17411160      1.83714107
C      -0.32687124      0.97985058      1.10967997
C      -1.08779560      0.70505903     -0.18427920
O      -0.67969072      0.89960400     -1.32169737
O      -2.32468303      0.20752210      0.10343880
C      -3.11502830     -0.08368060     -1.05048260
C      -4.50301420     -0.58563776     -0.64444401
O      -4.86216094     -0.61415082      0.53631082
N      -5.36143078     -0.98972996     -1.66335742
C      -5.16868925     -0.65386668     -3.06751433
C      -6.69782562     -1.47396448     -1.29261653
C      -7.72648740     -0.35612017     -1.09232099
N      -7.31781694      0.70667826     -0.33514672
O      -8.88604412     -0.43226757     -1.48765594
C       1.16951636      1.17129486      0.89971606
C       1.68243511      2.26601958      0.18585624
C       3.05939794      2.43420055      0.02371495
C       3.94786244      1.50550750      0.56384574
C       3.45499924      0.39514216      1.25565417
C       4.36287151     -0.61547205      1.85507904
O       4.05389647     -1.13861352      2.92297459
C       5.63292360     -1.00905337      1.19404811
C       5.74157549     -1.09416356     -0.19948270
C       6.95131145     -1.47997330     -0.78077054
C       8.04652655     -1.79241799      0.02509524
C       7.93447677     -1.72951244      1.41392552
C       6.72757330     -1.34461909      1.99936439
C       2.07364846      0.23993274      1.43629095
H      -0.41032969      2.39455424      2.76577395
H      -1.99373620      1.97317433      2.09559175
H      -0.93955293      3.07770476      1.21740525
H      -0.46307625      0.09013428      1.73989081
H      -3.24266608      0.83117370     -1.63986612
H      -2.62046927     -0.86863684     -1.63315362
H      -4.11871784     -0.48614117     -3.31095287
H      -5.53872120     -1.47460919     -3.68885582
H      -5.73146993      0.25769928     -3.28853299
H      -6.63933361     -2.04442565     -0.35883105
H      -7.05362853     -2.14982034     -2.07757395
H      -8.04491245      1.34628396     -0.04348530
H      -6.55175856      0.55477344      0.31891601
H       1.01095200      2.99942025     -0.25744285
H       3.43775151      3.29472193     -0.52298450
H       5.01617513      1.66848339      0.44881931
H       4.89189502     -0.88179913     -0.84328830
H       7.03774606     -1.54676173     -1.86268287
H       8.98626355     -2.09696998     -0.42958048
H       8.78409655     -1.98633125      2.04177212
H       6.64029767     -1.30733747      3.08350434
H       1.70991779     -0.61644008      2.00318989
