23
COCOC(=O)c1ccccc1O
C       3.63725708      0.87456836     -1.08064531
O       3.54420574     -0.01807871      0.02115706
C       2.49993184     -0.97496448     -0.15356701
O       1.23058710     -0.34596538      0.02403246
C       0.18427117     -1.18088556     -0.18148129
O       0.27060912     -2.35633411     -0.49871264
C      -1.10673702     -0.46753578      0.02106790
C      -2.27864542     -1.20192930     -0.23047533
C      -3.53678992     -0.61582303     -0.07229009
C      -3.63833176      0.71049050      0.33932991
C      -2.48398352      1.44990272      0.59407857
C      -1.22467576      0.86695816      0.43820717
O      -0.16776958      1.68883176      0.72268209
H       2.71135098      1.44566576     -1.19758600
H       4.45394688      1.57506382     -0.88627035
H       3.86145351      0.32680172     -2.00104010
H       2.58116446     -1.44283046     -1.14268967
H       2.63254837     -1.73791280      0.62103303
H      -2.21815512     -2.24036255     -0.55331859
H      -4.43550225     -1.19529256     -0.27027315
H      -4.61561184      1.17041855      0.46404113
H      -2.56355852      2.48498503      0.91787842
H       0.66243445      1.18422833      0.61533398
