40
CCCCCCCC1(CC)C(=O)NC(=O)NC1=O
C      -3.98287960     -0.91811191      1.75077094
C      -4.20082479     -1.22992544      0.27811595
C      -2.99005562     -0.90225218     -0.59933304
C      -2.67479663      0.59455824     -0.65654594
C      -1.59188681      0.94766275     -1.68194565
C      -0.22920207      0.27574527     -1.47131213
C       0.40103493      0.60169528     -0.10986930
C       1.86888419      0.10586165      0.08563057
C       1.98150219     -1.41533356     -0.18044089
C       3.36352415     -2.01085527      0.08736265
C       2.76669869      0.89987104     -0.85471232
O       3.15829516      0.48815117     -1.94367271
N       3.09112464      2.16217935     -0.44204088
C       3.24397289      2.49991134      0.86562150
O       3.96425254      3.43267557      1.20541269
N       2.63426645      1.70357917      1.78375366
C       2.20969376      0.42652884      1.53698693
O       2.06056423     -0.36212734      2.46721391
H      -4.84063298     -1.26140172      2.33806807
H      -3.08854543     -1.42170616      2.13113843
H      -3.87421286      0.15688038      1.92148929
H      -5.08248804     -0.68812808     -0.08342598
H      -4.42296106     -2.29906016      0.17768592
H      -3.19315841     -1.26519556     -1.61433001
H      -2.12098038     -1.45861566     -0.23013740
H      -3.58656216      1.14302863     -0.92441911
H      -2.37569094      0.95860886      0.33201581
H      -1.95432189      0.68699388     -2.68425329
H      -1.45451934      2.03625208     -1.67929230
H      -0.33897263     -0.80704374     -1.59008830
H       0.43351056      0.61265072     -2.27640722
H      -0.22133830      0.16190647      0.68077372
H       0.35267673      1.68867593      0.04199085
H       1.25059589     -1.95473061      0.43558611
H       1.73374225     -1.63636064     -1.22552507
H       4.13450744     -1.53929025     -0.52845467
H       3.35719567     -3.07955324     -0.15181739
H       3.65578541     -1.91200276      1.13621570
H       3.69129250      2.67538730     -1.07449840
H       2.87090970      1.90289038      2.74668929
