30
NS(=O)(=O)c1nnc(NS(=O)(=O)c2ccccc2C(=O)O)s1
N       4.83294860      0.32793741      1.84999789
S       4.47569858     -0.42293017      0.38308816
O       5.48692109      0.03851600     -0.54129070
O       4.29716165     -1.82244483      0.69907287
C       2.93208801      0.15727489     -0.22057786
N       2.12254737      0.99809453      0.39251772
N       0.99185174      1.24227390     -0.36566544
C       0.99563567      0.54655496     -1.47962042
N      -0.09856173      0.66877645     -2.41987711
S      -1.20593878     -0.59861889     -2.29341772
O      -0.50389332     -1.83532619     -2.57181456
O      -2.38874662     -0.24980501     -3.05064946
C      -1.68575749     -0.62862523     -0.57990957
C      -1.35119441     -1.75459351      0.18842732
C      -1.77611631     -1.84619894      1.51407427
C      -2.54304025     -0.82616105      2.07324575
C      -2.88325023      0.29251135      1.30997435
C      -2.45720095      0.39967393     -0.02341985
C      -2.77931670      1.63243932     -0.77105239
O      -2.03062520      2.21119614     -1.53668283
O      -4.02340544      2.06392055     -0.51257299
S       2.38914015     -0.40552590     -1.73750128
H       5.67316604      0.89818124      1.74319455
H       4.92762751     -0.38028427      2.57911224
H      -0.61029667      1.55438143     -2.29550531
H      -0.77132099     -2.57253688     -0.23651052
H      -1.51589012     -2.71928291      2.10920398
H      -2.87559030     -0.90006802      3.10649910
H      -3.47362390      1.08545867      1.76574877
H      -4.15101699      2.84521105     -1.09120574
