32
CCC1(C)NC(=O)C(C)(CC)NC1=O
C      -3.01920908      1.25327669      0.74995619
C      -2.95599276     -0.16677053      0.19431493
C      -1.52623332     -0.65175758     -0.12865404
C      -1.59079471     -2.10360075     -0.64180830
N      -0.69990136     -0.61650059      1.08511836
C       0.67484051     -0.67020978      0.99030806
O       1.31535172     -1.22422281      1.87845342
C       1.29103427      0.22846307     -0.12181733
C       1.27776670      1.67971972      0.38827376
C       2.71594875     -0.25521612     -0.48317176
C       3.82057675      0.09305931      0.50862912
N       0.46853709      0.15223712     -1.34553015
C      -0.90706236      0.19278260     -1.27414752
O      -1.54961997      0.68468804     -2.19743566
H      -2.60882737      1.98124165      0.04406526
H      -4.06024313      1.52989079      0.94635270
H      -2.46973233      1.33930505      1.69237346
H      -3.58206844     -0.21351223     -0.70574359
H      -3.41486463     -0.83895371      0.93107694
H      -0.59569577     -2.49091962     -0.89029629
H      -2.20373801     -2.17705624     -1.54751023
H      -2.02036212     -2.77079653      0.11427721
H      -1.03274455     -1.17556467      1.86188629
H       1.79271251      1.77533319      1.35036995
H       1.75843742      2.35272287     -0.33068736
H       0.25599440      2.04649922      0.54155626
H       2.70261599     -1.34439156     -0.62276195
H       3.00806067      0.16697796     -1.45433581
H       3.60530855     -0.27639677      1.51400732
H       4.76396143     -0.35907962      0.18443063
H       3.98107321      1.17405501      0.56300148
H       0.80486992      0.68469686     -2.13942667
