21
Cc1ccc(N)c(S(=O)(=O)O)c1
C       2.04238465      0.92131091     -2.29732043
C       1.20662705      0.64754407     -1.08169000
C       1.50523437      1.26020739      0.14003635
C       0.70958139      1.03086981      1.26882838
C      -0.43279355      0.22788164      1.19250611
N      -1.16938589     -0.03794867      2.36886091
C      -0.69093115     -0.42361138     -0.02323096
S      -2.00117996     -1.61470459     -0.09924737
O      -1.95357131     -2.28450895     -1.38048738
O      -3.19754457     -0.94696883      0.37368486
O      -1.57766542     -2.68453570      1.03949887
C       0.09748227     -0.19970300     -1.15976638
H       1.63453422      1.77555613     -2.84631549
H       3.07817150      1.14172800     -2.01849324
H       2.06343066      0.05047518     -2.96095118
H       2.36902347      1.91710303      0.22609670
H       0.98905110      1.50645656      2.20618176
H      -0.98305735      0.64833563      3.10121244
H      -2.18092542     -0.04267073      2.18088188
H      -1.37193729     -2.19059299      1.86683204
H      -0.13652878     -0.70222352     -2.09711788
