49
CC1=NC(c2cccc(-c3cccnc3)c2)(C2CCCCC2)N=C1N
C      -0.65720617      2.93057177      2.82239507
C      -0.79739657      2.27818061      1.49668665
N      -0.60021799      1.02823439      1.24441054
C      -0.85944493      0.92542025     -0.22474048
C       0.40977354      0.51811206     -0.99225295
C       0.47144522      0.66630189     -2.38721895
C       1.61047620      0.29053294     -3.09696032
C       2.70947199     -0.24295014     -2.42313181
C       2.69063736     -0.41111629     -1.02997095
C       3.84517043     -0.97868560     -0.31780064
C       3.70823524     -2.03805571      0.58862409
C       4.82462323     -2.55361200      1.24520779
C       6.06105976     -1.99240985      0.97763539
N       6.24816580     -0.97151185      0.11657314
C       5.14087064     -0.49304704     -0.50419592
C       1.53016586     -0.02459829     -0.33388330
C      -2.01726585     -0.10683135     -0.46537367
C      -1.65205514     -1.53423614      0.00230017
C      -2.78332123     -2.53011752     -0.24827783
C      -4.08815314     -2.07696446      0.39310968
C      -4.47119713     -0.67613569     -0.06561957
C      -3.34861269      0.32731914      0.19167074
N      -1.31096092      2.26307225     -0.72926473
C      -1.22602820      3.04104611      0.29391134
N      -1.50429167      4.37344539      0.27439981
H       0.09690379      3.71978785      2.76613951
H      -1.61506375      3.36361719      3.12206083
H      -0.34828747      2.19690239      3.57177798
H      -0.37753646      1.08317667     -2.92633318
H       1.63997907      0.41012796     -4.17675521
H       3.58068117     -0.54329632     -3.00199664
H       2.73061612     -2.47516338      0.77966149
H       4.72925349     -3.37543458      1.94567575
H       6.96018342     -2.36048519      1.46314312
H       5.33427495      0.33702989     -1.17956672
H       1.49795154     -0.14690551      0.74815201
H      -2.20360408     -0.15637477     -1.54853442
H      -1.41233742     -1.52993189      1.07275340
H      -0.76174386     -1.89609896     -0.52296994
H      -2.92891295     -2.65103137     -1.32884881
H      -2.50132936     -3.51270710      0.14677577
H      -3.98389376     -2.08977113      1.48498240
H      -4.88876414     -2.78092268      0.13983389
H      -4.70815576     -0.69224837     -1.13655664
H      -5.37891548     -0.35354763      0.45688424
H      -3.66568613      1.30234817     -0.19478620
H      -3.21742345      0.43900204      1.27487557
H      -0.95566620      4.96337150      0.88840566
H      -1.55646691      4.73659034     -0.67300719
