36
Nc1c(Br)cc(Br)cc1CN[C@H]1CC[C@H](O)CC1
N       2.89600739     -1.36485100     -1.87673206
C       3.33142091     -0.72660898     -0.69760599
C       4.70537165     -0.46632805     -0.49525049
Br      5.97633331     -0.81448568     -1.87060887
C       5.18027913      0.08266364      0.69751228
C       4.28480322      0.35191310      1.72344453
Br      4.90745215      1.10655587      3.34059416
C       2.93263364      0.05600450      1.57356867
C       2.44561100     -0.51558130      0.37969487
C       0.96971785     -0.85050774      0.31211693
N       0.18576564      0.34828982      0.00789273
C      -1.23711437      0.06814439     -0.21782360
C      -1.95752096     -0.34084061      1.07858025
C      -3.45884974     -0.51465125      0.86087314
C      -4.09078692      0.73585005      0.25602226
O      -5.46766229      0.49471365     -0.01042219
C      -3.38509782      1.14827646     -1.03266553
C      -1.88607223      1.33068111     -0.81479087
H       3.56280174     -1.26630106     -2.64058660
H       1.95334776     -1.12437577     -2.16198500
H       6.23793071      0.29619871      0.82263090
H       2.23911110      0.26003601      2.38798891
H       0.67470368     -1.26941923      1.28163025
H       0.78785266     -1.64039318     -0.42488560
H       0.58445414      0.79252426     -0.81861742
H      -1.33763008     -0.73855946     -0.95644972
H      -1.79234884      0.41798646      1.85467048
H      -1.55568591     -1.28412164      1.46495373
H      -3.95101507     -0.75437715      1.81118450
H      -3.64106166     -1.37786304      0.20745592
H      -4.03980659      1.55756545      0.97975508
H      -5.53116059     -0.23903591     -0.64510755
H      -3.82575972      2.07700548     -1.41470358
H      -3.55929164      0.39501214     -1.81199310
H      -1.41524451      1.57987846     -1.77407227
H      -1.72348873      2.18900149     -0.14910437
