23
O=C1NC(=O)C2(CCCC2)C(=O)N1
O       4.05865269      0.24082435     -0.48545890
C       2.84099129      0.20981178     -0.34081192
N       2.26084265      0.51840995      0.85057038
C       1.04966528      0.01377087      1.24317902
O       0.81420391     -0.17753626      2.43207326
C       0.05963233     -0.22505253      0.11580470
C      -1.11865622     -1.12631483      0.54060393
C      -2.35753974     -0.46239439     -0.04506596
C      -2.05693218      1.01519892      0.10812989
C      -0.58725229      1.12850686     -0.28248804
C       0.79075575     -0.78269100     -1.09450008
O       0.33134281     -1.63083121     -1.85333664
N       2.02054729     -0.23019459     -1.33292577
H       2.92060237      0.67101530      1.60237461
H      -1.02650425     -2.16036354      0.19233352
H      -1.22762293     -1.17195351      1.63042680
H      -3.27193371     -0.75777463      0.47728217
H      -2.46658396     -0.72359892     -1.10416766
H      -2.70087707      1.63972344     -0.51768442
H      -2.19272904      1.32335444      1.15169811
H      -0.13080232      1.99370077      0.21132851
H      -0.51777444      1.30166464     -1.36399513
H       2.50797177     -0.60727593     -2.13537039
