23
CCCCc1nc(C=O)c(Cl)[nH]1
C      -3.06649196      0.71119957     -1.28616439
C      -1.96378500     -0.14049169     -0.67628714
C      -1.62586549      0.31822541      0.74490448
C      -0.57414840     -0.56245850      1.42315421
C       0.77745908     -0.41256305      0.81064478
N       1.58307618      0.62752135      0.92004016
C       2.71730764      0.31612089      0.18316393
C       3.83662845      1.22647329      0.06224673
O       4.86158170      1.00243982     -0.57532017
C       2.56649080     -0.93233365     -0.36150948
Cl      3.51313483     -1.93094698     -1.34637325
N       1.35015013     -1.39188681      0.03525011
H      -2.76479943      1.76202147     -1.34175805
H      -3.98482983      0.64764475     -0.69377717
H      -3.29267179      0.36842804     -2.30070297
H      -1.07733975     -0.08027149     -1.31731137
H      -2.28552470     -1.18829140     -0.66262355
H      -1.28812783      1.36210183      0.72493821
H      -2.53913289      0.29181728      1.35248481
H      -0.89254760     -1.61162109      1.40424303
H      -0.50233692     -0.27603502      2.47953464
H       3.70625113      2.17847780      0.60331294
H       0.94552168     -2.28557182     -0.20501381
