9
NC(=O)CBr
N       1.26699487     -0.49012541      0.10579028
C       0.38413975      0.53245325     -0.10714830
O       0.78202475      1.69053605     -0.18554351
C      -1.05641065      0.13751023     -0.31763896
Br     -1.68407161     -0.78427061      1.27418966
H       2.20999983     -0.20863208      0.34546194
H       0.93634410     -1.36020962      0.50494505
H      -1.15559774     -0.53881629     -1.16910706
H      -1.68342331      1.02155450     -0.45094910
