60
CCCCCCCCOC(=O)/C=C/C(=O)OCCCCCCCC
C       8.70365994      2.80455221     -1.04444215
C       7.61922624      2.27581742     -0.11774454
C       8.09856038      1.04893327      0.65840027
C       7.08719037      0.54775893      1.69421060
C       5.71300038      0.14158944      1.15025484
C       5.77397848     -1.00491597      0.13801090
C       4.39955539     -1.40841355     -0.39943432
C       3.49010202     -2.04020607      0.65133661
O       2.28619590     -2.52151941      0.03025948
C       1.29311934     -1.61004858     -0.10575519
O       1.32002093     -0.43927578      0.23416902
C       0.14844849     -2.27467211     -0.74950415
C      -0.96025321     -1.56815770     -1.00511621
C      -2.10557641     -2.23278226     -1.64777420
O      -2.13872402     -3.40722901     -1.97384299
O      -3.09076624     -1.31578077     -1.79971636
C      -4.29763355     -1.79531475     -2.41015189
C      -5.22692284     -2.43329540     -1.37824210
C      -5.54262344     -1.54615847     -0.16888823
C      -6.28432090     -0.25964034     -0.53746752
C      -6.67298174      0.53385044      0.71335713
C      -7.41213911      1.82199882      0.34413784
C      -7.91585082      2.60194566      1.56036953
C      -6.79906245      3.15323307      2.43330843
H       9.00061996      2.04441480     -1.77416954
H       8.33979085      3.67886978     -1.59329119
H       9.59186605      3.10432168     -0.47898678
H       6.73834902      2.02572311     -0.71867416
H       7.32541630      3.06787296      0.58070688
H       8.35424803      0.24332743     -0.03934394
H       9.02677829      1.30004863      1.18737646
H       7.52690431     -0.30853352      2.22106427
H       6.94058276      1.33009662      2.44970161
H       5.21418441      1.00841487      0.70224992
H       5.09804368     -0.15800715      2.00666229
H       6.26268385     -1.87567811      0.59124770
H       6.38841397     -0.70549981     -0.71845410
H       4.53588561     -2.12447721     -1.22001886
H       3.90467203     -0.53946605     -0.84988733
H       3.98263391     -2.90979729      1.09974455
H       3.25065087     -1.35011484      1.46767750
H       0.24509954     -3.32568367     -0.99665452
H      -1.05668192     -0.51705650     -0.75820320
H      -4.78271071     -0.93555603     -2.88344785
H      -4.07188689     -2.50214646     -3.21801980
H      -6.15938846     -2.73228223     -1.87125850
H      -4.76017097     -3.35083513     -0.99979132
H      -6.15875735     -2.12839558      0.52776805
H      -4.61727346     -1.30006985      0.36571997
H      -7.18575551     -0.50695887     -1.11091530
H      -5.65290286      0.36803745     -1.17620831
H      -5.76697395      0.77032764      1.28273922
H      -7.31070499     -0.08398304      1.35705338
H      -6.75874775      2.46379939     -0.25925082
H      -8.27633481      1.57189240     -0.28378602
H      -8.52626095      3.44097647      1.20574016
H      -8.57244926      1.96651278      2.16599016
H      -6.23161247      2.35084909      2.91359576
H      -7.21781550      3.78212252      3.22571294
H      -6.10659878      3.76466461      1.84611621
