33
c1ccc(CCNCc2ccccc2)cc1
C      -5.67408749     -0.40038649      0.60164338
C      -5.03601048     -1.23486851     -0.31423685
C      -3.74480498     -0.93563304     -0.75174587
C      -3.08206089      0.20488663     -0.27878466
C      -1.67723773      0.51940073     -0.73343977
C      -0.62897167     -0.09955525      0.20020957
N       0.72263247      0.21427333     -0.27003731
C       1.73455908     -0.35526352      0.61974828
C       3.12427836     -0.10135099      0.08525467
C       3.91131329     -1.15589971     -0.39898559
C       5.19462392     -0.91291600     -0.89301638
C       5.70247597      0.38497785     -0.91145978
C       4.92778338      1.44218399     -0.43832336
C       3.64529983      1.20089806      0.05637317
C      -3.73064124      1.03476710      0.64560352
C      -5.02168019      0.73360973      1.08180974
H      -6.67967870     -0.63365679      0.94122212
H      -5.54450855     -2.11949983     -0.68842215
H      -3.25962291     -1.59740406     -1.46552900
H      -1.54757264      1.60853390     -0.78264008
H      -1.53812967      0.15263833     -1.75892001
H      -0.76962076     -1.18700614      0.24291406
H      -0.76851867      0.29209621      1.21553303
H       0.86168172     -0.16592744     -1.20591867
H       1.57774541     -1.43511845      0.73470587
H       1.66081392      0.08870759      1.62034468
H       3.53044287     -2.17436459     -0.39436437
H       5.79815154     -1.73670307     -1.26486873
H       6.70065484      0.57326380     -1.29748490
H       5.31923517      2.45570429     -0.45724450
H       3.04231136      2.03304438      0.41431732
H      -3.23256325      1.92212331      1.03042018
H      -5.51829335      1.38444467      1.79662648
