56
CCCCCCCCCCCCCCCCOC(C)=O
C       6.70821650      2.63064665     -2.60100375
C       6.91284505      1.29078993     -1.91207577
C       5.60178452      0.74785511     -1.34171467
C       5.81613345     -0.59837990     -0.64639744
C       4.51707603     -1.24426599     -0.15609888
C       3.82972418     -0.45645333      0.96138372
C       2.60205669     -1.20298448      1.49084222
C       1.90898078     -0.41120350      2.60150992
C       0.73993204     -1.16114699      3.24738877
C      -0.39953669     -1.56169452      2.30534417
C      -1.05916190     -0.37151921      1.60586208
C      -2.26120720     -0.81735284      0.76843438
C      -2.91973173      0.37325169      0.06797350
C      -4.05645366     -0.02742136     -0.87736260
C      -5.26628624     -0.62749282     -0.15374981
C      -6.41171468     -0.94718058     -1.11416046
O      -6.87517514      0.23444646     -1.78482760
C      -7.79775992      0.97403106     -1.11095104
C      -8.18373574      2.17087523     -1.92504526
O      -8.25063549      0.71688088     -0.00491911
H       6.32199145      3.37740101     -1.89991444
H       7.65755101      2.99978309     -3.00149564
H       6.00101783      2.54064925     -3.43172201
H       7.33026161      0.57711197     -2.63189180
H       7.64822418      1.40841955     -1.10763725
H       4.86995898      0.63215363     -2.15026793
H       5.19157973      1.47605468     -0.63320589
H       6.50629790     -0.47426297      0.19698602
H       6.29727888     -1.29086917     -1.34834679
H       4.75380972     -2.25119485      0.20970538
H       3.82745114     -1.36939900     -0.99977328
H       3.51755203      0.52651421      0.59150743
H       4.53827570     -0.28689318      1.78100454
H       2.90554615     -2.18461373      1.87405640
H       1.90590262     -1.37683946      0.66267462
H       2.63963012     -0.18297642      3.38787619
H       1.56704110      0.55472893      2.21248107
H       1.12475987     -2.06865014      3.72929269
H       0.33114699     -0.53664942      4.05161996
H      -0.03651298     -2.27760824      1.55903901
H      -1.15555996     -2.09340617      2.89697339
H      -1.38471797      0.36105216      2.35417289
H      -0.33470667      0.12839480      0.95323618
H      -1.93508201     -1.55013843      0.02056146
H      -2.98568448     -1.31729852      1.42070420
H      -3.29574100      1.08198420      0.81583694
H      -2.16137977      0.90671600     -0.51866423
H      -3.68108672     -0.73921851     -1.62257179
H      -4.36856740      0.86904456     -1.42672721
H      -4.97994345     -1.55124654      0.35967586
H      -5.61039974      0.08156728      0.60793988
H      -6.06852003     -1.64160828     -1.88890186
H      -7.23578110     -1.44431747     -0.58857291
H      -8.61957782      1.84902005     -2.87416714
H      -7.30686514      2.80006752     -2.09716722
H      -8.93050165      2.75484614     -1.37946323
