18
CC(=O)c1ccc(O)cc1
C       2.92335130     -0.33861614     -0.44996237
C       1.88191959      0.73311147     -0.26093934
O       2.18671869      1.92423213     -0.27081377
C       0.45775033      0.33124072     -0.05885100
C       0.05517875     -1.01009907     -0.03880728
C      -1.29103844     -1.33299998      0.15394084
C      -2.22921876     -0.32142407      0.32561601
O      -3.52868435     -0.68749827      0.51002789
C      -1.84751109      1.01515130      0.30856455
C      -0.50218433      1.34003061      0.11601050
H       2.97319619     -0.97894568      0.43446429
H       2.70535274     -0.92516725     -1.34614956
H       3.90268603      0.13179884     -0.58306839
H       0.76341284     -1.82239770     -0.16987444
H      -1.60811370     -2.37257344      0.17023735
H      -4.06732001      0.11429358      0.61526572
H      -2.57185614      1.81268074      0.44160819
H      -0.20363964      2.38718220      0.10273082
