21
O=C1CNC(=O)c2cc(Cl)ccc2N1
O      -2.91970123      2.00126793     -0.90264770
C      -2.10006855      1.17131811     -0.50331273
C      -2.47815266      0.09943222      0.49365812
N      -2.04927408     -1.20209939      0.05640818
C      -0.76261461     -1.64734028      0.11035449
O      -0.56147343     -2.85855939      0.15393055
C       0.37767424     -0.69368762      0.09695575
C       1.60964946     -1.23943596      0.51637246
C       2.78819596     -0.50738728      0.41518435
Cl      4.27588922     -1.19375076      0.93541161
C       2.76834889      0.77095772     -0.12257348
C       1.55620428      1.32204013     -0.54259776
C       0.34468836      0.61498861     -0.41571031
N      -0.78876212      1.32561868     -0.84741091
H      -2.04110295      0.33039034      1.47036606
H      -3.56827052      0.07094910      0.58600909
H      -2.71395604     -1.96248964      0.14238477
H       1.64988705     -2.25730787      0.90321177
H       3.68677014      1.34493234     -0.21810297
H       1.56983745      2.33094730     -0.95238516
H      -0.64376886      2.17921573     -1.37550619
