22
C[C@@H](Oc1ccc(Cl)cc1Cl)C(=O)O
C      -2.78360032      0.01531630      1.03409249
C      -1.56896040     -0.04126290      0.11361155
O      -0.52316287     -0.69844521      0.84466650
C       0.71814231     -0.22553493      0.50718062
C       1.47621699     -0.98153158     -0.38888688
C       2.76179993     -0.56472137     -0.73681088
C       3.29035757      0.59532784     -0.17126196
Cl      4.87577566      1.10637148     -0.60242879
C       2.55090637      1.33986775      0.74640760
C       1.26511550      0.92273410      1.09422221
Cl      0.39130008      1.84682092      2.26080149
C      -1.93809471     -0.79859638     -1.16293902
O      -1.47600676     -1.85448023     -1.56515840
O      -2.87125505     -0.15497897     -1.89938401
H      -3.62214492      0.54031064      0.56604737
H      -2.53583314      0.52317635      1.97190735
H      -3.11955535     -0.99409064      1.29815849
H      -1.27925021      0.97848997     -0.17290811
H       1.06874537     -1.89622586     -0.81433302
H       3.34565424     -1.15217683     -1.44115743
H       2.97726950      2.23338680      1.19402040
H      -3.00341979     -0.73975727     -2.67584755
