44
COC(=O)c1ccccc1S(=O)(=O)NC(=O)N(C)c1nc(C)nc(OC)n1
C      -1.13360819     -4.08267487     -1.02777015
O      -1.88555292     -3.48372122      0.02971293
C      -1.59453163     -2.18276470      0.25616641
O      -0.83699202     -1.46642408     -0.37486988
C      -2.36757671     -1.72123819      1.42184143
C      -3.76752276     -1.80652046      1.36576565
C      -4.54108643     -1.32560947      2.42343147
C      -3.92337043     -0.75447251      3.53631852
C      -2.53112834     -0.66750679      3.59843007
C      -1.75117396     -1.14563201      2.53677866
S       0.01513519     -1.11777020      2.68755240
O       0.35264289     -0.65015222      4.01540722
O       0.49648511     -2.40816718      2.23980968
N       0.50389507      0.01056801      1.58833917
C       0.09678299      1.33914902      1.53884326
O      -0.65215624      1.78039183      2.40611647
N       0.53240637      2.13219931      0.48326231
C       0.08708000      3.51577627      0.42468052
C       1.34675745      1.68932731     -0.58699004
N       1.62284862      2.56406550     -1.55747456
C       2.35854157      2.11301883     -2.57367512
C       2.68933933      3.08156289     -3.66629380
N       2.83543884      0.87738045     -2.66926285
C       2.51882371      0.09042458     -1.64866649
O       2.96542305     -1.21263885     -1.61639769
C       3.59299946     -1.62158155     -2.82231489
N       1.79333912      0.43921156     -0.59213931
H      -1.64593809     -3.91206550     -1.97882925
H      -1.08804797     -5.15958569     -0.84287334
H      -0.10618834     -3.70451735     -1.07230228
H      -4.25892222     -2.23926666      0.49605076
H      -5.62598771     -1.39087531      2.37871476
H      -4.52537245     -0.37725581      4.36025237
H      -2.06085758     -0.22416251      4.47669695
H       0.96770546     -0.38343167      0.76670775
H       0.95370403      4.18112969      0.35599625
H      -0.48356197      3.80654275      1.31060507
H      -0.55785531      3.64955121     -0.45057623
H       1.78487353      3.60289060     -3.99371922
H       3.40987525      3.81871924     -3.30001156
H       3.12238421      2.56818959     -4.53001305
H       3.84185422     -2.68288658     -2.72280222
H       4.52748329     -1.07541655     -2.98701259
H       2.92161254     -1.51838719     -3.68348556
