27
Cc1nn(-c2ccccc2)c(N)c1C
C       3.13636272     -1.65746047      0.63534213
C       2.00293866     -0.73583744      0.36971005
N       0.74883994     -1.16929602      0.50832388
N      -0.03514343     -0.12675310      0.11495860
C      -1.44075153     -0.32465155     -0.04274633
C      -2.03689104     -1.46844373      0.51422994
C      -3.40920992     -1.69037445      0.37742800
C      -4.19535405     -0.78308165     -0.32858850
C      -3.60898292      0.34039567     -0.90822444
C      -2.23589199      0.56868310     -0.77227721
C       0.73929029      1.02744285     -0.07529324
N       0.24893999      2.28712190     -0.24730221
C       2.06058787      0.62938286     -0.00558920
C       3.27408580      1.45775194     -0.20598695
H       3.70992127     -1.82740436     -0.28138103
H       2.78954685     -2.62897096      1.00269690
H       3.80635246     -1.23228088      1.38947787
H      -1.44268883     -2.19214379      1.06974008
H      -3.86039981     -2.57464978      0.82004305
H      -5.26204650     -0.95944962     -0.43965530
H      -4.21857622      1.03338772     -1.48288551
H      -1.81028962      1.42134889     -1.29206831
H       0.90056970      3.06252159     -0.14529722
H      -0.63875617      2.51363611      0.20029680
H       4.13431227      0.84209506     -0.48691414
H       3.52273714      1.99455460      0.71496398
H       3.12049706      2.19247549     -1.00300169
