25
COc1ccc(CCC(=O)O)cc1
C       4.59893069      0.24260371      0.02720321
O       3.67057942     -0.80529366      0.27526604
C       2.35963010     -0.55181281     -0.02105171
C       1.84792817      0.64178097     -0.52921964
C       0.47809756      0.76732900     -0.78791547
C      -0.39572558     -0.29968414     -0.54580210
C      -1.87430385     -0.15418851     -0.80517156
C      -2.61188603      0.35573165      0.42943841
C      -4.08155601      0.49935926      0.15666123
O      -4.66901807      0.27207176     -0.88657881
O      -4.75422312      0.93570874      1.23988016
C       0.12143012     -1.49318492     -0.03116619
C       1.48891521     -1.61506170      0.22623145
H       4.62654575      0.50269268     -1.03615107
H       5.59326145     -0.11855638      0.30708041
H       4.37789541      1.11996055      0.64401677
H       2.48472569      1.49523710     -0.73536009
H       0.09889596      1.70768016     -1.18249419
H      -2.03154161      0.52572036     -1.65277604
H      -2.28572934     -1.12067612     -1.12469993
H      -2.22036985      1.33487787      0.72832575
H      -2.48342631     -0.34352205      1.26365905
H      -5.68602605      0.98711513      0.93979257
H      -0.53314511     -2.33744516      0.17236939
H       1.88011541     -2.54844351      0.62362183
