20
Cc1ncnc2c(O)cccc12
C       2.80081363     -0.42632533      0.00890698
C       1.54789526      0.40204135     -0.01223545
N       1.73584733      1.74036568     -0.04841698
C       0.63307995      2.49773378     -0.06778590
N      -0.63089007      2.05597641     -0.05474320
C      -0.79403674      0.72227730     -0.01870803
C      -2.08876047      0.20735557     -0.00366671
O      -3.15795075      1.07221756     -0.02595991
C      -2.36152741     -1.15659622      0.03328486
C      -1.30434026     -2.05652117      0.05653012
C       0.00677368     -1.57846165      0.04246430
C       0.27393121     -0.18494764      0.00472455
H       3.69000685      0.21286769     -0.00910189
H       2.84354201     -1.03157292      0.91973265
H       2.84190928     -1.07967425     -0.86813364
H       0.77841265      3.57232975     -0.09683205
H      -2.74728296      1.96202698     -0.05028242
H      -3.38977760     -1.50602672      0.04363050
H      -1.49864191     -3.12573632      0.08547810
H       0.82099633     -2.29932983      0.06111412
