25
Cc1[nH]c(=O)c(C#N)cc1-c1ccncc1
C      -0.29264463     -2.09933671      1.14237595
C      -0.91372602     -1.01811255      0.29732435
N      -2.24228994     -1.22908343     -0.01995684
C      -3.02187288     -0.38635950     -0.77688517
O      -4.19590745     -0.64764453     -1.01306109
C      -2.35333765      0.84138360     -1.27954751
C      -3.08278643      1.76678013     -2.06862077
N      -3.62576318      2.56112731     -2.71828948
C      -1.06145163      1.04027050     -0.96732875
C      -0.29725608      0.09778454     -0.15660811
C       1.11880757      0.36501806      0.15655041
C       2.12722270     -0.08474038     -0.69703689
C       3.44026839      0.20220595     -0.36543702
N       3.80105621      0.89615260      0.73498757
C       2.80659326      1.32731447      1.53985224
C       1.46421862      1.09244265      1.29643637
H       0.75752861     -1.91797068      1.38454820
H      -0.34576180     -3.06097059      0.62027708
H      -0.83452336     -2.19315048      2.08985306
H      -2.71504147     -2.06185435      0.31458057
H      -0.53868108      1.92826347     -1.31784119
H       1.90244867     -0.64610875     -1.59747801
H       4.26236691     -0.12706578     -0.99485218
H       3.12854368      1.88606834      2.41424945
H       0.71198898      1.46758611      1.98190777
