13
Oc1ccc(F)cc1
O       2.48487683     -0.34064869      0.11628778
C       1.13446183     -0.16772182      0.04721419
C       0.38158122     -1.18775340     -0.52907777
C      -1.00335629     -1.05374275     -0.62079243
C      -1.61175512      0.09858345     -0.13437237
F      -2.94192978      0.22932849     -0.22148045
C      -0.86050540      1.11903921      0.44194019
C       0.52586475      0.98730787      0.53491430
H       2.87963460      0.44068091      0.53719088
H       0.87244740     -2.08135093     -0.90413254
H      -1.60823980     -1.83657639     -1.06612936
H      -1.36076209      2.00756590      0.81349289
H       1.10768185      1.78528815      0.98494469
