24
Cn1c(N)c(NC=O)c(=O)n(C)c1=O
C      -0.26430343      2.74528815      0.38869214
N      -0.36189430      1.29991512      0.18047765
C       0.81011527      0.55632893      0.03023847
N       2.01333388      1.24669069      0.01529489
C       0.73015963     -0.79262026     -0.05732467
N       1.74146730     -1.73678855     -0.20546892
C       3.07423315     -1.61242232     -0.47913772
O       3.70652885     -0.58909909     -0.69768454
C      -0.62145843     -1.43479088      0.02965380
O      -0.67361152     -2.66893286      0.06402577
N      -1.72038415     -0.61897504      0.04577988
C      -3.03751577     -1.22553637      0.08285081
C      -1.64099917      0.75183523      0.18530691
O      -2.65665813      1.43898348      0.31647618
H       0.09744833      3.21477171     -0.53173870
H       0.42304749      2.95418213      1.21520156
H      -1.22702372      3.19837845      0.64083312
H       1.99015952      2.03805869     -0.61903506
H       2.81140027      0.65498233     -0.24507197
H       1.38853353     -2.69390766     -0.15568975
H       3.56429580     -2.60098537     -0.51065203
H      -3.38250269     -1.23953860      1.12176806
H      -3.02218492     -2.24910824     -0.30190390
H      -3.74218680     -0.63670965     -0.51289200
