68
CCCC1C[C@@](C)(OC(C)=O)CCO1.CCCC1C[C@](C)(OC(C)=O)CCO1
C      -4.69104438      0.78751513     -0.58905219
C      -3.43800161      0.47765411      0.21498540
C      -2.21170077      0.33834628     -0.69180485
C      -0.93425485      0.05825661      0.10933527
C       0.28978010      0.00537997     -0.81287477
C       1.49720541     -0.66323616     -0.11590310
C       1.71611287     -2.06749578     -0.71496685
O       2.74078876      0.03330265     -0.41262481
C       2.90467798      1.33387767     -0.05143692
C       4.26816409      1.80393008     -0.45739148
O       2.07501397      2.03552806      0.50822526
C       1.28982107     -0.79385339      1.40155997
C      -0.05270594     -1.43120918      1.74710336
O      -1.06308830     -1.20440318      0.76454018
C       4.64393301     -0.61979920     -0.32103889
C       3.24993655     -0.41328785      0.25310960
C       2.33151799      0.28679895     -0.75355698
C       0.93145916      0.61020229     -0.21148962
C       0.13202616     -0.63319408      0.18383961
C      -1.31842301     -0.23436610      0.54912923
C      -1.88014903     -1.28903994      1.51531997
O      -2.05953080     -0.28363687     -0.70496629
C      -3.37042725      0.07780381     -0.74124246
C      -3.90022130     -0.08325351     -2.13349823
O      -4.03435581      0.47410551      0.20425333
C      -1.34823960      1.18833855      1.14607860
C      -0.02376198      1.53112477      1.80833965
O       1.07169362      1.51243331      0.89272799
H      -4.58043415      1.72586071     -1.14185413
H      -5.55417133      0.88544098      0.07675851
H      -4.90419902     -0.01135695     -1.30649667
H      -3.27200100      1.27969929      0.94351407
H      -3.59756699     -0.44707885      0.78096524
H      -2.08402234      1.25688497     -1.27729531
H      -2.39199794     -0.48275337     -1.39724454
H      -0.81136296      0.84829658      0.86204992
H       0.03567237     -0.56746618     -1.71511632
H       0.51741830      1.01303421     -1.17624411
H       2.56680511     -2.56599718     -0.23563015
H       0.83607911     -2.70933914     -0.60929867
H       1.96435408     -1.99903442     -1.78080689
H       4.34717380      1.81213565     -1.54714929
H       5.03075108      1.15368658     -0.02100825
H       4.42752170      2.81914876     -0.08341546
H       2.11194432     -1.34471615      1.87497957
H       1.32178623      0.19485624      1.87281606
H       0.05867266     -2.51620174      1.84597443
H      -0.41319142     -1.05869287      2.71248192
H       4.60830464     -1.23363949     -1.22683581
H       5.28307174     -1.12732058      0.40837453
H       5.11051006      0.33813962     -0.57230901
H       2.83715215     -1.39016053      0.52691686
H       3.32803282      0.17809566      1.17220807
H       2.80884394      1.22836557     -1.05509255
H       2.23848804     -0.33054939     -1.65540904
H       0.39638853      1.14833024     -1.00486509
H       0.61084220     -1.10190857      1.05247272
H       0.13524840     -1.36167342     -0.63592958
H      -2.91269083     -1.07230869      1.80488086
H      -1.89081276     -2.27790741      1.04313923
H      -1.28716559     -1.34804721      2.43403513
H      -3.87796342     -1.13828877     -2.41774142
H      -3.30604956      0.51568997     -2.82899768
H      -4.93494933      0.26963882     -2.17079837
H      -1.54310651      1.92008755      0.35128823
H      -2.16104875      1.29083555      1.87398823
H      -0.06726851      2.53377624      2.24589809
H       0.19871502      0.83461519      2.62482418
