21
CC(=O)C(O)c1ccccc1
C      -2.39622715     -0.61371881      0.69389593
C      -2.11782615      0.58223880     -0.17875142
O      -2.94264186      0.97769076     -1.00936631
C      -0.79929445      1.33712173      0.03598898
O      -0.65295266      2.37502795     -0.93303314
C       0.41091982      0.43478940     -0.03101400
C       1.12402111      0.11281714      1.13416098
C       2.22179218     -0.74821257      1.07877059
C       2.61948686     -1.29635002     -0.13904071
C       1.92335210     -0.98209552     -1.30409745
C       0.82569297     -0.12197963     -1.25141224
H      -2.24237101     -0.34821537      1.74281341
H      -1.74506615     -1.44403521      0.41202080
H      -3.43709437     -0.92413531      0.56500961
H      -0.86419117      1.82833650      1.01340721
H      -1.54731058      2.52472383     -1.29994618
H       0.83516093      0.53389275      2.09471265
H       2.77119568     -0.98803183      1.98565998
H       3.47710952     -1.96270473     -0.18189585
H       2.23835106     -1.40121370     -2.25631972
H       0.29789333      0.12405383     -2.17156314
