13
Oc1ccccc1Cl
O       1.90385751     -1.58982052      0.04391745
C       0.83209630     -0.74019586      0.01635089
C      -0.43172581     -1.30637247     -0.11444861
C      -1.55710552     -0.48140379     -0.14760220
C      -1.41400740      0.90463102     -0.04992507
C      -0.14354653      1.47033045      0.08134272
C       0.98013233      0.64531036      0.11436472
Cl      2.54638715      1.34772459      0.27651079
H       2.70259363     -1.03804832      0.13873525
H      -0.53951532     -2.38480755     -0.19017911
H      -2.54676834     -0.92038293     -0.24975296
H      -2.29339217      1.54385352     -0.07616825
H      -0.03900583      2.54918150      0.15685438
