19
N#CC(C#N)=NNc1ccccc1
N       4.06348652      3.11682524     -0.66275044
C       3.55199392      2.11694414     -0.36136587
C       2.95690377      0.86682088      0.01423131
C       3.71621499     -0.26864587      0.45280171
N       4.31823788     -1.20596077      0.78581233
N       1.66146639      0.83030748     -0.07206781
N       0.99660913     -0.31632795      0.26712383
C      -0.41428979     -0.31756867      0.15190887
C      -1.15859888      0.86082063      0.00888550
C      -2.55531458      0.82773419     -0.03958131
C      -3.22894509     -0.38515451      0.07804127
C      -2.50698268     -1.56264077      0.25388698
C      -1.11029827     -1.52638841      0.30130714
H       1.39376877     -1.23311715      0.04593443
H      -0.65499698      1.82076348     -0.06910424
H      -3.11373927      1.75200767     -0.16232019
H      -4.31492498     -0.41054870      0.04358632
H      -3.02985863     -2.50930197      0.36238680
H      -0.57073219     -2.45656894      0.45947394
