21
COC(=O)c1cc(O)c(O)c(O)c1
C       3.87059715     -0.87414939      0.39248331
O       2.45099145     -0.92256545      0.24339272
C       1.85820054      0.29488635      0.19837848
O       2.42733085      1.37296284      0.27289842
C       0.38477942      0.16364984      0.04250782
C      -0.37504660      1.34746816     -0.02044175
C      -1.75590578      1.26975637     -0.16588975
O      -2.54259691      2.38539452     -0.23259702
C      -2.38036403      0.03122120     -0.24842627
O      -3.73829478     -0.05614098     -0.39161183
C      -1.63159673     -1.13658433     -0.18640956
O      -2.25107012     -2.34981574     -0.26807186
C      -0.25124624     -1.08517250     -0.04138091
H       4.24383551     -1.90166722      0.41719131
H       4.14067608     -0.38451169      1.33338264
H       4.32799922     -0.35955474     -0.45837282
H       0.12437274      2.31077966      0.04518849
H      -1.97045946      3.17051076     -0.16184356
H      -4.04007658      0.87566783     -0.41018229
H      -3.20203274     -2.13809210     -0.36454478
H       0.30990701     -2.01404340      0.00434922
