27
O=S(=O)(Nc1ccccc1Cl)c1ccccc1
O       0.20200688      0.49364023      2.98448343
S      -0.37678453      1.34264612      1.96495332
O      -1.13591676      2.52388064      2.31841623
N       0.84217964      1.86273887      0.91203774
C       1.57879816      0.87857871      0.17550204
C       2.40674919     -0.02136222      0.84963927
C       3.10174905     -1.00279129      0.13950371
C       2.97471159     -1.08753819     -1.24693705
C       2.15578540     -0.18711561     -1.92932673
C       1.46119709      0.79469364     -1.22052869
Cl      0.46141892      1.89816689     -2.09798289
C      -1.41023717      0.33335139      0.92730973
C      -1.24700858     -1.05541813      0.92354182
C      -2.06536501     -1.83955843      0.11110727
C      -3.04653276     -1.23884696     -0.67966195
C      -3.21897607      0.14636234     -0.65684910
C      -2.40479021      0.93819124      0.15251755
H       0.53010271      2.67263187      0.37328013
H       2.52433112      0.03755752      1.92965146
H       3.74519183     -1.70044005      0.67138617
H       3.51805662     -1.85307623     -1.79644570
H       2.06439197     -0.25601811     -3.01026087
H      -0.48960045     -1.52983555      1.54357150
H      -1.94304913     -2.91996342      0.09744627
H      -3.68533756     -1.85342996     -1.30985961
H      -3.99219155      0.60723162     -1.26705828
H      -2.55088038      2.01572307      0.17305346
