34
O=C1C=C2CC3(O)COc4c(ccc(O)c4O)C3=C2C=C1O
O      -5.22530970      1.46023456      1.11923048
C      -4.08115900      1.11256580      0.84067903
C      -3.76573051     -0.27301649      0.40785019
C      -2.49083203     -0.59452992      0.15871520
C      -1.93783036     -1.89384394     -0.34633727
C      -0.41795417     -1.71646949     -0.20225207
O       0.04443290     -2.55203129      0.86229302
C       0.36374817     -1.98810251     -1.48910826
O       1.77136952     -1.71181338     -1.34371858
C       2.07709174     -0.54627930     -0.67258623
C       1.16076256      0.20345256      0.09306498
C       1.63771210      1.31089236      0.81198577
C       2.98121122      1.69825825      0.73288530
C       3.85914640      0.96349828     -0.04675745
O       5.16896993      1.33767101     -0.11490293
C       3.41607497     -0.15629576     -0.73625568
O       4.32758696     -0.87161592     -1.46914134
C      -0.22979757     -0.26333092      0.15863320
C      -1.40708705      0.35466963      0.35621409
C      -1.69977030      1.74070188      0.63374445
C      -2.96292476      2.11468218      0.88604321
O      -3.28432131      3.42671470      1.17757173
H      -4.59411063     -0.95787833      0.28756206
H      -2.22969148     -2.02976720     -1.39433099
H      -2.31471533     -2.73894056      0.24008843
H       0.99778134     -2.38491156      0.97141704
H      -0.01407217     -1.40273405     -2.33718748
H       0.28663877     -3.04828608     -1.75479615
H       0.98846779      1.87470762      1.47516923
H       3.33958959      2.55906775      1.29066831
H       5.58679673      0.67675838     -0.70308631
H       3.81882455     -1.61093672     -1.85747898
H      -0.91774019      2.48789218      0.63185711
H      -4.25315868      3.41901629      1.33226691
