49
COc1ccc(CC(C)NCC(O)c2ccc(O)c(NC=O)c2)cc1
C      -7.98433971      0.94299764      0.09522108
O      -7.30747280      0.32303473     -0.99055854
C      -5.94055990      0.35992453     -0.96866017
C      -5.14992922      0.94574868      0.01925046
C      -3.75426353      0.91090617     -0.08241210
C      -3.13134028      0.28940858     -1.17207084
C      -1.62395943      0.24513344     -1.27615450
C      -1.01796952     -1.15017864     -0.98120015
C      -1.22590720     -1.58624397      0.47266041
N       0.39868145     -1.24953312     -1.39704188
C       1.34951855     -0.43371910     -0.61013313
C       2.19404524     -1.32404777      0.33622678
O       2.76212006     -2.40122578     -0.41373604
C       3.30421546     -0.56342089      1.02803800
C       3.30377115     -0.43194984      2.42594841
C       4.32235377      0.26606402      3.07663085
C       5.34282639      0.84149764      2.32473823
O       6.35502337      1.53570202      2.94067823
C       5.36562803      0.73309219      0.92736213
N       6.43480725      1.35879979      0.25790041
C       6.63473227      1.47209753     -1.09340261
O       5.92818853      1.08551612     -2.01274259
C       4.35117267      0.01992273      0.28867720
C      -3.92994962     -0.29504611     -2.16150981
C      -5.32230210     -0.25860052     -2.05693314
H      -9.05966942      0.82811094     -0.07181600
H      -7.76661935      2.01542888      0.13588060
H      -7.74081798      0.45325324      1.04384130
H      -5.58504408      1.43815417      0.88218402
H      -3.15769785      1.37346073      0.70096640
H      -1.19279643      1.00212738     -0.60969162
H      -1.35394679      0.55941701     -2.29367049
H      -1.54661200     -1.88501749     -1.60224167
H      -0.81208193     -0.86213563      1.18184980
H      -0.75669007     -2.55869704      0.65881864
H      -2.29123609     -1.70083190      0.69826981
H       0.46059092     -0.95183943     -2.37396770
H       0.87191462      0.38109827     -0.05634795
H       2.01593726      0.04405849     -1.33920451
H       1.54158675     -1.78204022      1.08750881
H       2.04961994     -2.65382392     -1.03447080
H       2.51166643     -0.88559395      3.01835913
H       4.30182804      0.34654446      4.15858216
H       6.21443823      1.48519991      3.90129623
H       7.10653238      1.80032894      0.87835830
H       7.57612552      2.01072132     -1.29740037
H       4.36287184     -0.11559617     -0.78951831
H      -3.47707389     -0.78205800     -3.02217819
H      -5.93191695     -0.71648853     -2.83218427
