10
CS(=O)(=O)O.[Cu]
C      -1.06674398     -0.12209609      0.02079073
S       0.60361725      0.47796515     -0.03157062
O       0.92584518      0.88568428      1.39868538
O       0.70118452      1.66521219     -0.93660831
O       1.69044059     -0.68294276     -0.49363355
Cu      0.00000000      0.00000000      0.00000000
H      -1.67925632      0.70260558      0.48698143
H      -1.46452793     -0.36339942     -0.98298089
H      -1.12440004     -1.00553372      0.66861207
H       1.41384073     -1.55749520     -0.13027624
