50
C[C@@]1(Cn2ccc(-n3cccc3)c2-n2cccc2)[C@H](C(=O)[O-])N2C(=O)C[C@@H]2S1(=O)=O.[Na+]
C      -0.95375220      1.56349790      0.41407966
C      -1.82564448      0.29617029      0.26659566
C      -0.98383674     -1.00003548      0.34793322
N       0.22555000     -1.05770745     -0.47567982
C       0.18255388     -1.44671560     -1.79535424
C       1.42452045     -1.26533967     -2.34998793
C       2.29891908     -0.84082648     -1.31427676
N       3.71171276     -0.69586266     -1.50279269
C       4.70270927     -0.72922013     -0.54108531
C       5.93267496     -0.56572322     -1.14016741
C       5.70874839     -0.46296488     -2.52695537
C       4.34997730     -0.56900314     -2.72579049
C       1.52901855     -0.69694685     -0.16181720
N       1.91862268     -0.16298179      1.07142437
C       2.68865914      0.97454114      1.24961562
C       2.83453664      1.22516984      2.59559942
C       2.14816503      0.20395214      3.28179982
C       1.60779047     -0.63378860      2.33073248
C      -2.97133653      0.39046663      1.30781692
C      -3.44019722     -1.04492013      1.67305295
O      -4.27973900     -1.55758214      0.88931612
O      -2.84593680     -1.54534756      2.66783470
N      -3.99046402      1.31077223      0.73380633
C      -5.32429942      1.03904920      0.91615206
O      -6.00505745      1.06038557      1.91407283
C      -5.52884327      0.76486531     -0.59084972
C      -4.12901687      1.34052220     -0.75062241
S      -2.73717759      0.37893347     -1.32089223
O      -3.14714223     -0.93295583     -1.77836688
O      -1.97517560      1.21409773     -2.24042835
Na      0.00000000      0.00000000      0.00000000
H      -0.19000503      1.63437473     -0.36623098
H      -0.45418814      1.58064055      1.38783790
H      -1.55215165      2.47897016      0.34092496
H      -1.56970305     -1.88184846      0.05982991
H      -0.67745159     -1.17366115      1.37682707
H      -0.73766570     -1.80261458     -2.24376228
H       1.67033911     -1.49191723     -3.37879529
H       4.46230093     -0.90169892      0.49752806
H       6.88491958     -0.54792980     -0.62683865
H       6.45232496     -0.33718523     -3.30265425
H       3.77770640     -0.53396319     -3.64171893
H       3.03922553      1.53179313      0.39138582
H       3.37422046      2.05636621      3.02922021
H       2.05804549      0.07728599      4.35286634
H       1.05377004     -1.55425353      2.45821632
H      -2.62746741      0.86431764      2.23626427
H      -6.32461737      1.36192581     -1.04382998
H      -5.66897729     -0.28614428     -0.84888482
H      -4.09716445      2.37104010     -1.12295100
