55
CCCCCCCCCCCCCCNC(=O)C(C)O
C      -8.80214802     -2.51797211     -0.35819407
C      -7.34486620     -2.15304206     -0.11855292
C      -6.91201224     -0.98089307     -0.99977359
C      -5.41829124     -0.65556741     -0.89610970
C      -5.00561200     -0.12457574      0.47947184
C      -3.51195344      0.20767092      0.57680710
C      -3.09584014      1.39130191     -0.30085700
C      -1.66007656      1.86023324     -0.04341352
C      -0.60491018      0.82181223     -0.43141673
C       0.81075930      1.38380073     -0.27350006
C       1.86471850      0.34273380     -0.65696875
C       3.29543019      0.88955574     -0.64600366
C       3.78695731      1.28095369      0.75136252
C       5.23779592      1.76576524      0.74477236
N       6.17537936      0.72060796      0.38753560
C       6.61926887     -0.20194778      1.30787928
O       6.29586377     -0.19311784      2.49500569
C       7.54304272     -1.29878787      0.74843593
C       8.82657230     -0.71990478      0.17821163
O       7.89175077     -2.23579933      1.76536242
H      -9.45990785     -1.67039854     -0.13958421
H      -8.96478892     -2.82092543     -1.39740755
H      -9.09540707     -3.35156457      0.28779099
H      -7.21803234     -1.90196503      0.93959058
H      -6.71726238     -3.02759657     -0.32487256
H      -7.50076378     -0.09040127     -0.74833061
H      -7.13549083     -1.22038170     -2.04686645
H      -5.19007484      0.09420658     -1.66184267
H      -4.83005056     -1.54830739     -1.14089611
H      -5.22687082     -0.87743409      1.24430013
H      -5.59768084      0.76438157      0.72818280
H      -2.92914732     -0.68289447      0.31469006
H      -3.28244388      0.44151709      1.62393129
H      -3.20170916      1.13374802     -1.36061921
H      -3.77041996      2.23492614     -0.10924528
H      -1.54426536      2.12998946      1.01329032
H      -1.49157576      2.77636655     -0.62303845
H      -0.76178785      0.50991595     -1.47117406
H      -0.70768487     -0.07102169      0.19563307
H       0.92515966      2.27268502     -0.90543968
H       0.95545003      1.70106527      0.76521899
H       1.65023454     -0.02733675     -1.66730927
H       1.79552111     -0.52042263      0.01602209
H       3.36355689      1.75391341     -1.31758962
H       3.95265908      0.11563719     -1.06029751
H       3.16364262      2.09017451      1.14718127
H       3.67951982      0.42724837      1.43094357
H       5.36994676      2.58255295      0.02776901
H       5.49989163      2.14367188      1.73924196
H       6.36852845      0.56969624     -0.59422743
H       6.99328999     -1.84450117     -0.02550142
H       8.63365274     -0.04437842     -0.66023368
H       9.48939720     -1.52060258     -0.16619819
H       9.37412495     -0.16107649      0.94505327
H       7.41895993     -1.94331487      2.57255393
