46
CCCCCCC(CCC)(CCC)C(=O)NO
C       5.41516954      0.59378425      1.10070971
C       4.11836172      0.16106832      0.43356577
C       3.48826828      1.30895153     -0.35622934
C       2.24153123      0.89454487     -1.14315545
C       1.06542618      0.48594328     -0.24982932
C      -0.18397577      0.19007812     -1.09042955
C      -1.44954694     -0.25145607     -0.29202976
C      -1.19169254     -1.55991443      0.52020270
C      -0.69924609     -2.75548763     -0.30530496
C      -0.57558029     -4.00505694      0.55501567
C      -1.89976832      0.84687430      0.72218120
C      -2.19268247      2.22220806      0.10920305
C      -2.71185736      3.19391732      1.15957224
C      -2.59329563     -0.50375506     -1.30574438
O      -2.48428428     -0.31204405     -2.51819097
N      -3.78007812     -0.96673137     -0.78307672
O      -4.84428441     -1.06903106     -1.71198263
H       6.14981769      0.91915688      0.35723355
H       5.24097233      1.42027813      1.79707527
H       5.84808834     -0.23928086      1.66333503
H       4.32247341     -0.68360273     -0.23441456
H       3.42907100     -0.19313763      1.20731616
H       4.22588082      1.70087849     -1.06767196
H       3.23751301      2.13270586      0.32318806
H       1.93715962      1.74180625     -1.77023877
H       2.49324168      0.07204449     -1.82371170
H       0.86150528      1.29413579      0.46011855
H       1.34026279     -0.40071878      0.32841210
H       0.06728135     -0.57949183     -1.83223435
H      -0.42035811      1.07921913     -1.68954785
H      -0.46233846     -1.36034010      1.31577364
H      -2.11149942     -1.85650429      1.04154601
H       0.28121983     -2.54117097     -0.74258580
H      -1.38907023     -2.96229589     -1.13041061
H      -1.54354120     -4.28426771      0.98326544
H       0.13183689     -3.84776629      1.37548340
H      -0.21608213     -4.84531335     -0.04723555
H      -2.79650817      0.51134902      1.25847718
H      -1.13187978      0.96624706      1.49730688
H      -2.93762622      2.13550866     -0.68889212
H      -1.28513147      2.64615528     -0.33234555
H      -2.90849747      4.17096900      0.70715382
H      -3.64482984      2.83137394      1.60278700
H      -1.97999044      3.33198171      1.96184836
H      -4.05064278     -0.82977821      0.18365927
H      -4.41079306     -0.80403446     -2.55427943
