37
CCC1(C2=CCC3CCC2C3)C(=O)NC(=O)NC1=O
C      -3.06935376      2.16401414     -0.25216565
C      -1.58370971      1.85394291     -0.06887583
C      -1.24704121      0.34285792      0.05774888
C       0.29238768      0.19045720      0.22751940
C       0.91328693     -0.16112313      1.37800498
C       2.41579336     -0.26009001      1.50446268
C       3.15689358     -0.01032630      0.17706648
C       2.95041061     -1.17009503     -0.81332014
C       1.69210227     -0.80687296     -1.61585807
C       1.17947316      0.50062098     -0.98908883
C       2.49183526      1.16080308     -0.54351634
C      -1.65216000     -0.41567424     -1.21204474
O      -1.68278173      0.08771515     -2.33464885
N      -1.94199606     -1.74365740     -1.06217819
C      -2.43105509     -2.29327916      0.07788570
O      -3.04628516     -3.35447179      0.06258014
N      -2.28986193     -1.57443558      1.22032358
C      -1.97922357     -0.24270026      1.27617406
O      -2.24463140      0.39571642      2.29473923
H      -3.66619006      1.82488828      0.59888676
H      -3.21182664      3.24607583     -0.34269701
H      -3.47069627      1.70173115     -1.15840326
H      -1.05279159      2.29867328     -0.91929580
H      -1.23197205      2.38918597      0.82336585
H       0.36486346     -0.35844543      2.29588479
H       2.68371604     -1.24324738      1.90781185
H       2.73861518      0.48811625      2.23892189
H       4.22054785      0.16191401      0.36950538
H       2.84873081     -2.13806575     -0.31170935
H       3.80623549     -1.24290635     -1.49482210
H       1.96589921     -0.63667535     -2.66425275
H       0.95906176     -1.61919943     -1.59901419
H       0.66868164      1.13139109     -1.72034338
H       3.08525144      1.47455158     -1.41104820
H       2.33951790      2.03321297      0.10138260
H      -2.19975225     -2.22906739     -1.91067099
H      -2.77197514     -1.94553524      2.02741648
