6
C=NO
C      -0.80403868      0.26103736      0.04745988
N       0.13271762     -0.62594059      0.05687677
O       1.24577409     -0.09724862      0.72003400
H      -0.69058706      1.25889536      0.50393177
H      -1.76924830      0.03586591     -0.43150237
H       1.88538233     -0.83260942      0.67301642
