24
CC(=O)N[C@H](C(=O)O)C(C)C
C       2.51764342     -2.10346203     -0.70986790
C       1.04286653     -1.80553291     -0.74634185
O       0.22764147     -2.59695864     -1.20673840
N       0.70720881     -0.57331162     -0.23029052
C      -0.65626313     -0.05678335     -0.38099129
C      -0.73481135      0.72433143     -1.69579713
O       0.20701153      1.21325167     -2.30382113
O      -1.99559542      0.88415888     -2.14548020
C      -1.09196465      0.82179312      0.81127621
C      -1.23957109     -0.02069420      2.08194026
C      -0.15444917      2.00407982      1.07780432
H       2.66712289     -3.13008499     -0.36419671
H       3.04522846     -1.43290897     -0.02561924
H       2.93129804     -1.98776621     -1.71493416
H       1.44388649      0.12262670     -0.24444964
H      -1.33958408     -0.90974835     -0.47717007
H      -1.89087321      1.36945943     -2.99066954
H      -2.08133320      1.23966828      0.58154087
H      -1.93879451     -0.84801910      1.92107011
H      -0.28034475     -0.44251422      2.40007789
H      -1.62829763      0.58727580      2.90595271
H      -0.54924895      2.62914358      1.88644281
H      -0.05359333      2.64020346      0.19311338
H       0.84481683      1.67179240      1.37714923
