6
C=C
C      -0.66473235     -0.06120223      0.02161309
C       0.66473235      0.06120219     -0.02161311
H      -1.30519374      0.81190232      0.09770798
H      -1.13874232     -1.03691657     -0.01824587
H       1.13874227      1.03691658      0.01824586
H       1.30519379     -0.81190229     -0.09770795
