35
CC(=O)OCC(C(OC(C)=O)c1ccccc1)[N+](=O)[O-]
C       4.67851558     -2.08210318      0.23985937
C       3.32362089     -1.63186893      0.68957978
O       3.11153158     -0.88270713      1.63228479
O       2.35814733     -2.15653515     -0.11527582
C       0.99774685     -1.82864413      0.24655069
C       0.62091267     -0.40980850     -0.17399735
C      -0.71580758      0.09505954      0.39466186
O      -1.87650475     -0.63301048     -0.05927369
C      -2.26914007     -1.70633220      0.67062060
C      -3.51200163     -2.30358013      0.08784136
O      -1.68069502     -2.13954016      1.64985517
C      -0.93385885      1.57792735      0.11151200
C      -0.36940568      2.53848349      0.96770724
C      -0.53463725      3.90140672      0.71545025
C      -1.26118821      4.32262211     -0.39550075
C      -1.82322077      3.38240068     -1.25567305
C      -1.66089140      2.01860589     -1.00584704
N       0.57461232     -0.38603555     -1.67858553
O       1.37530955      0.36594914     -2.25030172
O      -0.23170076     -1.13141031     -2.25301636
H       5.43567492     -1.69299782      0.92654326
H       4.88214440     -1.69750714     -0.76248713
H       4.72957839     -3.17376876      0.25143721
H       0.36213978     -2.58678209     -0.22377664
H       0.88817417     -1.95731329      1.33017270
H       1.42365803      0.28538626      0.10086699
H      -0.67163235      0.01122981      1.48991537
H      -4.30410820     -1.55129794      0.05285013
H      -3.84789406     -3.13002388      0.72058085
H      -3.30252667     -2.68904364     -0.91298618
H       0.20590610      2.23530291      1.84100333
H      -0.09365114      4.63580505      1.38498185
H      -1.38702788      5.38397591     -0.59334644
H      -2.38602772      3.71071588     -2.12604995
H      -2.10575257      1.30543966     -1.69815713
