11
COC(C)=O
C       1.70934587      0.23733245     -0.81072731
O       0.29613981      0.42708717     -0.73127258
C      -0.30195869     -0.29053665      0.25879202
C      -1.77665743     -0.02711593      0.26329746
O       0.26861461     -1.04243907      1.03614873
H       2.19244111      0.56066274      0.11667375
H       2.08825943      0.85310537     -1.63110559
H       1.94416203     -0.80969360     -1.02658376
H      -1.96326224      1.03358220      0.44892831
H      -2.24613233     -0.60844042      1.06206799
H      -2.21095218     -0.33354426     -0.69161099
