57
COc1ccn2cc(-c3cccc(-c4cncc(OC[C@H]5CCCO5)c4)c3)nc2c1C(N)=O
C      -9.60634967     -0.96296485     -0.58513066
O      -8.84549652     -0.00389548     -1.32038796
C      -7.49416492     -0.16952552     -1.11678977
C      -6.87035904     -1.06694566     -2.08631556
C      -5.54499608     -1.26735363     -2.04031627
N      -4.79820627     -0.60179846     -1.07747633
C      -3.44712519     -0.65582345     -0.84527671
C      -3.21135361      0.19311601      0.21434570
C      -1.92442322      0.47946033      0.83418058
C      -1.84241655      1.46723412      1.82391114
C      -0.62447692      1.76787063      2.43349863
C       0.53022496      1.07985077      2.06171264
C       0.48740306      0.07958639      1.07863550
C       1.70255910     -0.65058762      0.69084633
C       1.75759688     -2.04444502      0.69463547
N       2.84105345     -2.77592562      0.34035346
C       3.94242978     -2.08335295     -0.03545077
C       4.01318646     -0.69771199     -0.07375491
O       5.08516619      0.06354167     -0.43978190
C       6.27707113     -0.63553176     -0.80171320
C       7.36647996      0.37747303     -1.17503167
C       7.78902088      1.27210268     -0.01505449
C       8.98104167      0.54141419      0.55098420
C       9.61790031     -0.02573523     -0.69667857
O       8.54441082     -0.34039061     -1.59374135
C       2.87124426      0.01499287      0.29545744
C      -0.75253777     -0.20592667      0.47368046
N      -4.39160637      0.77035984      0.63309912
C      -5.33910232      0.28047781     -0.14960883
C      -6.75928913      0.50766466     -0.19558091
C      -7.40952457      1.46933668      0.75804990
N      -6.56633302      2.21125946      1.53113407
O      -8.62076754      1.60598432      0.89049374
H     -10.66495990     -0.71240879     -0.69974255
H      -9.44824084     -1.96991578     -0.98567185
H      -9.36252485     -0.94273027      0.48232522
H      -7.49502547     -1.54681949     -2.83246660
H      -5.01948580     -1.91879724     -2.72701672
H      -2.79960822     -1.27619782     -1.44699501
H      -2.73277820      2.01438638      2.12727643
H      -0.57727115      2.53683798      3.20043196
H       1.46797976      1.32311325      2.55815030
H       0.90027427     -2.63840254      1.00333710
H       4.77889591     -2.71711974     -0.30953244
H       6.62389428     -1.26320396      0.02903961
H       6.08960378     -1.28368065     -1.66734295
H       7.01231685      0.99356465     -2.00948747
H       7.00332988      1.45738515      0.72227081
H       8.11518084      2.24427243     -0.40528298
H       9.65781307      1.18257012      1.12163933
H       8.64379398     -0.27133214      1.20456709
H      10.20819514     -0.92437164     -0.49823620
H      10.25948568      0.71429668     -1.18704606
H       2.89506582      1.10212019      0.26073316
H      -0.78942714     -0.97181690     -0.29756444
H      -6.96315820      2.82495029      2.22680714
H      -5.56160974      2.04948893      1.51977950
