44
CN(C)CCC=C1c2ccccc2C=Cc2ccccc21.Cl
C       4.02308066      1.09809337     -0.00041333
N       3.95512014     -0.30673801      0.34911589
C       4.95893332     -0.98826641     -0.47144264
C       2.67349396     -0.83287180      0.03177744
C       1.54169234     -0.29166344      0.91427021
C       0.25126750     -0.83743413      0.55922320
C      -0.85028348     -0.30564271      0.22908203
C      -1.97337127     -1.27171688     -0.05513270
C      -1.52641024     -2.39001756     -0.69160959
C      -2.45209002     -3.38005995     -0.99982774
C      -3.77372057     -3.15651046     -0.63562091
C      -4.20482624     -2.01214390      0.01001702
C      -3.29366738     -1.02890185      0.31831411
C      -3.88240415      0.12991480      1.01187359
C      -3.38689882      1.35732892      1.14545581
C      -2.08809486      1.85741183      0.60766814
C      -2.05479045      3.22522423      0.51072926
C      -0.92492870      3.83541221     -0.04271410
C       0.14942372      3.09752306     -0.49273807
C       0.09653812      1.73647463     -0.38791755
C      -1.00248409      1.15415355      0.15519614
Cl      0.68697916      0.00000000      0.00000000
H       3.08117355      1.64566787      0.12036493
H       4.29140624      1.14458239     -1.09432340
H       4.88125445      1.59829493      0.50296359
H       5.98951555     -0.73745496     -0.16388573
H       4.81204722     -0.59136300     -1.51492358
H       4.77860605     -2.07672194     -0.50937728
H       2.69489868     -1.94267569      0.24395116
H       2.37998418     -0.65473382     -1.01756600
H       1.88376908     -0.75738746      1.95421808
H       1.63026490      0.74631630      1.19005379
H       0.35694596     -1.94341120      0.62342315
H      -0.47877649     -2.45758604     -0.94288125
H      -2.10380649     -4.25600303     -1.49645126
H      -4.47320721     -3.95841037     -0.89517735
H      -5.24493097     -1.87701521      0.27793089
H      -4.83408475     -0.03669754      1.46135698
H      -3.95494760      2.07987416      1.68430842
H      -2.88703792      3.80725711      0.85699657
H      -0.94157456      4.91582304     -0.09731296
H       1.02584798      3.56223432     -0.91977232
H       0.87707265      1.09984064     -0.78115055
H      -0.68697916      0.00000000      0.00000000
