8
ClC(Cl)C(Cl)(Cl)Cl
Cl     -1.72967257      0.21457027      1.37607645
C      -0.73953278     -0.29742528     -0.03708338
Cl     -1.59902967      0.25085889     -1.52038411
C       0.73313670      0.17775357      0.03529475
Cl      0.89501025      1.96733295      0.06502036
Cl      1.54590274     -0.47896955      1.50990757
Cl      1.67607518     -0.44280473     -1.37613433
H      -0.78188986     -1.39131610     -0.05269730
