50
CC(C)(C)C(=O)OCn1cc2c(=O)n(COC(=O)C(C)(C)C)cnc2n1
C       6.44589992     -1.31736515     -0.47636158
C       6.38024010      0.00930850      0.28869993
C       5.93641863      1.13778084     -0.65479074
C       7.77014370      0.35597234      0.84410919
C       5.40932340     -0.16836689      1.45931199
O       5.72973079     -0.57833876      2.56754535
O       4.13292016      0.12994782      1.10571674
C       3.20488496     -0.02766678      2.18194638
N       1.87253926      0.34083403      1.71069548
C       1.34898854      0.14050996      0.45565031
C       0.06891346      0.63951239      0.50855419
C      -0.97628768      0.74372510     -0.46262775
O      -0.86209265      0.33889146     -1.61387142
N      -2.10763516      1.35470843      0.06143668
C      -3.25868503      1.52306946     -0.79440434
O      -4.11338653      0.39786438     -0.59509797
C      -5.25463972      0.45809949     -1.33548933
O      -5.54953256      1.40356942     -2.05433745
C      -6.10550249     -0.79827228     -1.14179807
C      -7.39000197     -0.67951263     -1.97656201
C      -5.31391262     -2.02510188     -1.61238090
C      -6.48258240     -0.93979829      0.33861265
C      -2.18209278      1.75079309      1.38903869
N      -1.25687603      1.66120134      2.29268017
C      -0.08473067      1.08837604      1.81519858
N       0.99249239      0.91372311      2.56917798
H       5.46329478     -1.59839481     -0.87461073
H       6.77496437     -2.13522156      0.17508864
H       7.14489391     -1.25689668     -1.31799289
H       5.80009329      2.07782162     -0.10838300
H       6.67821928      1.30998501     -1.44285859
H       4.98597432      0.90310035     -1.14824968
H       8.14930801     -0.43299584      1.50456967
H       7.73827359      1.28209433      1.43024210
H       8.49972701      0.49166643      0.03749953
H       3.45984337      0.64362837      3.00907382
H       3.14538324     -1.07214223      2.50608170
H       1.91923933     -0.31634717     -0.34179630
H      -2.95062347      1.58222417     -1.84458152
H      -3.78244206      2.44224611     -0.50586926
H      -8.02318373     -1.56647590     -1.86125914
H      -7.97952201      0.19380763     -1.67486052
H      -7.16226646     -0.56736125     -3.04321093
H      -5.91814248     -2.93653930     -1.54698319
H      -4.98851994     -1.90838321     -2.65250654
H      -4.41369769     -2.18106231     -1.00674768
H      -5.59796419     -1.08719297      0.96828910
H      -6.99400174     -0.04121196      0.70246158
H      -7.14761792     -1.79581989      0.49821013
H      -3.15576984      2.18787229      1.66774097
