24
CC1CCC(C)(C)C1
C       2.69376853      0.21194322      0.69090286
C       1.42239810      0.18522056     -0.13983466
C       1.00270663     -1.22155512     -0.54695392
C      -0.44292183     -1.04681085     -1.00226777
C      -1.01129510      0.12793162     -0.16885578
C      -2.10761338     -0.35418002      0.78834340
C      -1.59321202      1.20579025     -1.09516483
C       0.19517622      0.68286811      0.62235014
H       2.59452270     -0.39284497      1.59858781
H       2.93533861      1.23619220      0.99294929
H       3.53832151     -0.18091441      0.11547982
H       1.56843300      0.79853110     -1.03855984
H       1.04389224     -1.90734439      0.30826017
H       1.63447911     -1.63233263     -1.34050611
H      -0.45557233     -0.81104272     -2.07362114
H      -1.00699457     -1.97682586     -0.87306973
H      -2.46959323      0.46603194      1.41818690
H      -1.73706813     -1.14524885      1.44998364
H      -2.96372528     -0.75788933      0.23636776
H      -1.98382955      2.05202723     -0.51896535
H      -2.41459418      0.80420436     -1.69910375
H      -0.83302012      1.59502639     -1.78162262
H       0.18662164      1.77560601      0.70031646
H       0.20378140      0.28561615      1.64571018
