66
CN(C)CCCN1CN(CCCN(C)C)CN(CCCN(C)C)C1
C      -0.65711178      5.49957924      2.43334025
N      -0.55041234      5.66944728      0.98618102
C       0.82682938      5.95845010      0.59630873
C      -1.13196894      4.54458153      0.23988737
C      -0.46750216      3.17026318      0.42502212
C      -1.18418045      2.10800681     -0.42427924
N      -0.68000724      0.74537905     -0.19243341
C      -1.59170662     -0.23515259     -0.77018829
N      -1.12868044     -1.57450405     -0.43740343
C      -2.03625844     -2.62273411     -0.92868987
C      -3.39470574     -2.64114016     -0.21123318
C      -4.20908907     -3.87646271     -0.62639356
N      -5.59209689     -3.86484243     -0.11858568
C      -6.34808930     -4.97659633     -0.70021576
C      -5.64677257     -3.94325569      1.34326070
C       0.20650767     -1.77261458     -0.98408051
N       1.11640045     -0.79410399     -0.40565466
C       2.49154966     -1.05006911     -0.86179489
C       3.54768544     -0.20992134     -0.12653117
C       4.96446660     -0.68221557     -0.48654128
N       6.02395357      0.19901920      0.03448180
C       7.32614363     -0.21532195     -0.49607905
C       6.06805789      0.20683762      1.49918249
C       0.65810166      0.54947169     -0.73407045
H      -0.36149668      6.42203999      2.94574418
H      -0.02563424      4.68795856      2.81181500
H      -1.69338122      5.29827592      2.72592144
H       1.52687390      5.17256954      0.90120274
H       0.90425468      6.09029055     -0.48853866
H       1.16006579      6.89900749      1.04894754
H      -1.12488594      4.80185002     -0.82764477
H      -2.19446582      4.46848283      0.50666120
H      -0.50394246      2.87070157      1.47856210
H       0.58508981      3.23502618      0.13399509
H      -1.12169433      2.37129228     -1.48828484
H      -2.24791654      2.14483606     -0.15329800
H      -1.69805261     -0.09944756     -1.85622042
H      -2.57856217     -0.07538094     -0.32311052
H      -2.18797261     -2.53034676     -2.01288631
H      -1.56721791     -3.60109344     -0.75788754
H      -3.96749170     -1.73930210     -0.45582252
H      -3.22438847     -2.64566398      0.87171208
H      -3.68584190     -4.78969655     -0.30931822
H      -4.24339337     -3.89460339     -1.72445000
H      -7.39170346     -4.94785451     -0.36782295
H      -5.92601304     -5.95103575     -0.42905502
H      -6.36878498     -4.90123253     -1.79328673
H      -6.68754757     -3.97487399      1.68811406
H      -5.13238316     -4.83088890      1.72871833
H      -5.20688743     -3.05434410      1.80568654
H       0.55088099     -2.77597697     -0.70177177
H       0.20638933     -1.72641437     -2.08292240
H       2.57839594     -0.88896212     -1.94559404
H       2.73036582     -2.10691877     -0.67872749
H       3.38322606     -0.29630897      0.95371733
H       3.44694470      0.84779354     -0.39675734
H       5.11115919     -1.71245830     -0.13699955
H       5.03788087     -0.70370268     -1.58171225
H       7.32997072     -0.16734275     -1.59087907
H       7.59053482     -1.23512857     -0.19239461
H       8.11568030      0.46297727     -0.15374805
H       5.15762913      0.64358873      1.92034792
H       6.89312303      0.83582108      1.85614699
H       6.20089896     -0.79885740      1.91422990
H       1.33053922      1.26896021     -0.26181751
H       0.68864039      0.73426253     -1.81750999
