43
COc1cc(N=Nc2ccc([N+](=O)[O-])cc2)ccc1NN=C1C=CC(=O)C=C1
C      -0.93685525      3.34189710     -1.14346611
O      -1.66463030      2.15688347     -0.84378096
C      -0.95416369      1.10721292     -0.30636873
C       0.42407005      1.10922661     -0.06697185
C       1.05705383     -0.01824642      0.47860831
N       2.43735755     -0.03063743      0.75516609
N       3.09968627      0.12584005     -0.29446146
C       4.47765470      0.08647174     -0.01858241
C       5.09484792      1.04602139      0.79840229
C       6.47242405      1.00440281      1.03671319
C       7.24295701     -0.00360412      0.44299122
N       8.69030000     -0.05370468      0.68722661
O       9.18258614      0.82167438      1.41314675
O       9.33366960     -0.96747701      0.15187291
C       6.64414669     -0.96151400     -0.38545984
C       5.26524617     -0.90678514     -0.61423926
C       0.28990630     -1.13706791      0.81016997
C      -1.08628478     -1.14780142      0.57594553
C      -1.71870197     -0.04172067     -0.00541135
N      -3.12979486     -0.00202050     -0.18553772
N      -3.76516712     -1.19524089     -0.35807440
C      -5.06420107     -1.17978854     -0.34928523
C      -5.76689818     -2.46571720     -0.59182376
C      -7.09936736     -2.55317068     -0.62777049
C      -7.94948651     -1.36815557     -0.41902477
O      -9.16984984     -1.44270776     -0.46823044
C      -7.27059707     -0.08926982     -0.14342934
C      -5.93754869      0.00295675     -0.10839939
H      -0.48990408      3.77033905     -0.24034648
H      -0.17981710      3.15575819     -1.91229532
H      -1.64383344      4.07483060     -1.54402741
H       1.03997241      1.97267984     -0.29193872
H       4.49276804      1.82940260      1.25371957
H       6.92201974      1.75817535      1.67991844
H       7.22856964     -1.74872692     -0.85756150
H       4.79494925     -1.64638153     -1.25903639
H       0.76568648     -2.00595028      1.25697208
H      -1.66950178     -2.02269750      0.85116717
H      -3.33999331      0.73695609     -0.86395910
H      -5.13830644     -3.33564725     -0.74738884
H      -7.61122408     -3.48980140     -0.81099740
H      -7.91136035      0.76548710      0.03601262
H      -5.45838457      0.94761858      0.11605169
