14
O=C(O)c1ccncc1
O       2.57812266      1.04384820      0.12178630
C       1.86676056      0.05800664      0.07080391
O       2.38596427     -1.18194176      0.05921515
C       0.38795131      0.06106375      0.01593483
C      -0.26993724      1.29110447      0.02212436
C      -1.65105990      1.28713928     -0.02928968
N      -2.39405939      0.16096043     -0.08494240
C      -1.73036031     -1.01525224     -0.08957557
C      -0.35252835     -1.11943663     -0.04097724
H       3.35438723     -1.03286010      0.09890977
H       0.27742386      2.22701341      0.06576969
H      -2.21550548      2.21553682     -0.02714035
H      -2.35845466     -1.90073482     -0.13496453
H       0.12129543     -2.09444744     -0.04765425
