72
CCCCCCCCCCCCCCCCCC(=O)O[Al](O)OC(=O)c1ccccc1
C       8.18634679      1.64170395      1.87580640
C       7.44738754      2.74355965      1.23130171
C       7.59160802      2.88562854     -0.21683104
C       7.11167872      1.93491906     -1.19967232
C       7.51343433      0.56232848     -1.39041716
C       7.30127931     -0.48235962     -0.38152135
C       5.84176588     -0.62008790      0.04646200
C       4.99354036     -0.96922066     -1.14361675
C       3.55330388     -1.08572796     -0.69889324
C       3.32616149     -2.13567569      0.32941637
C       1.89416496     -2.26030625      0.78023034
C       1.03175880     -2.61156792     -0.39906680
C      -0.42345158     -2.78535766     -0.01329849
C      -0.93389293     -1.49640839      0.58075196
C      -2.38970786     -1.60960516      0.98492715
C      -3.28397404     -1.93089273     -0.16806389
C      -3.22747814     -0.86204313     -1.23483067
C      -3.67050186      0.43973139     -0.68441678
O      -2.89672810      1.15251977     -0.00978513
O      -4.95301759      0.88417575     -0.91171466
Al     -5.63789287      2.48750740     -0.28220701
O      -4.59482005      3.39894246      0.95377646
O      -7.48458647      2.55551772      0.02406955
C      -8.32328904      1.50391042     -0.27799717
O      -7.82583878      0.46563595     -0.77661691
C      -9.76711782      1.54960872     -0.04147046
C     -10.40167876      2.64473494      0.50114794
C     -11.75703253      2.71740200      0.73538400
C     -12.52184387      1.61793805      0.40226038
C     -11.92854071      0.48812818     -0.14829546
C     -10.56840563      0.45501152     -0.36702358
H       7.54848510      0.79204289      2.18552322
H       8.62919718      2.01572908      2.86640376
H       9.04213146      1.25440197      1.29946034
H       7.62409249      3.73425880      1.76547660
H       6.33614573      2.55852614      1.45537964
H       7.18532835      3.95219593     -0.48041030
H       8.72963926      3.10115886     -0.43217422
H       5.92917423      1.99438856     -1.14279417
H       7.19486403      2.48491879     -2.23788815
H       8.61300653      0.47736423     -1.72197517
H       6.98692673      0.16421105     -2.34773140
H       7.43492441     -1.50305655     -0.96209456
H       8.03616188     -0.59305618      0.38194905
H       5.85797564     -1.41783644      0.82295464
H       5.45046039      0.31845659      0.48580749
H       5.02923766     -0.10792560     -1.84832383
H       5.34628685     -1.90605189     -1.62425880
H       2.97372782     -1.22977315     -1.64535396
H       3.25833191     -0.07292230     -0.33187729
H       3.61438160     -3.15894163     -0.04536533
H       3.96780384     -1.89412835      1.20737546
H       1.61997058     -1.27283247      1.21862713
H       1.87441968     -3.05150682      1.56631110
H       1.13573454     -1.80010809     -1.17094371
H       1.38388535     -3.54219266     -0.88725252
H      -0.44862664     -3.59681782      0.74270886
H      -0.99294341     -3.09411504     -0.89294694
H      -0.38223906     -1.29077147      1.52251078
H      -0.82431792     -0.63898147     -0.07919179
H      -2.67607102     -0.64604572      1.44692670
H      -2.43272184     -2.36870833      1.78657788
H      -3.10826313     -2.92674847     -0.59827407
H      -4.33700175     -1.93191035      0.23892881
H      -2.17656254     -0.80154247     -1.61480469
H      -3.89308668     -1.18528271     -2.07358888
H      -4.48069038      2.85285549      1.77494369
H      -9.82003517      3.51604909      0.76867809
H     -12.25245771      3.57829772      1.16167241
H     -13.59458470      1.58692726      0.55123371
H     -12.52331270     -0.37647874     -0.41127469
H     -10.06201003     -0.42063999     -0.80072031
