41
COC(=O)C(C)N(C(=O)c1ccco1)c1c(C)cccc1C
C      -2.34364863     -3.36711740      3.09959390
O      -2.06058665     -2.95072600      1.76306308
C      -1.50635458     -1.70321941      1.67576537
O      -1.30688857     -0.96612742      2.63393167
C      -1.24347626     -1.35078199      0.20379970
C      -2.56105800     -0.84967621     -0.39775625
N      -0.07132826     -0.44692649      0.12501566
C       1.18451088     -1.05300826      0.37427616
O       1.23740177     -2.25642418      0.65283725
C       2.40786403     -0.26153829      0.31264662
C       3.72738304     -0.68115307      0.24166219
C       4.53433069      0.48203245      0.23013597
C       3.66655546      1.54303002      0.31992313
O       2.38431189      1.10338614      0.37956692
C      -0.18546417      0.72627073     -0.67617187
C      -0.62221800      1.92666550     -0.07000692
C      -0.92765897      2.01558551      1.40031912
C      -0.76880836      3.07961937     -0.85806029
C      -0.46356903      3.05592716     -2.21508170
C      -0.01813607      1.87595958     -2.80816628
C       0.11188937      0.69427862     -2.05814684
C       0.60781242     -0.53914610     -2.76782419
H      -1.42520487     -3.41098154      3.69527533
H      -3.07733140     -2.69833831      3.56180087
H      -2.77605892     -4.37107251      3.05291888
H      -0.96760372     -2.27885488     -0.31605269
H      -3.34657471     -1.60523278     -0.28091371
H      -2.46856646     -0.64338034     -1.46923157
H      -2.92077466      0.05786934      0.09711518
H       4.05207485     -1.71369669      0.20051700
H       5.61305476      0.54017383      0.17510309
H       3.79453800      2.61515192      0.35300125
H      -0.13458379      1.55000679      1.99300827
H      -0.99130436      3.05909078      1.72748818
H      -1.88453229      1.53608518      1.62165250
H      -1.10721389      4.01278498     -0.41137176
H      -0.56535325      3.96162433     -2.81073572
H       0.22460133      1.88206014     -3.86896872
H       1.70054248     -0.60193881     -2.69840900
H       0.32947270     -0.51680354     -3.83031424
H       0.16795422     -1.45145815     -2.35320554
