55
C=CC1CN2CCC1CC2C(O)c1ccnc2ccc(OC)cc12.O=S(=O)(O)O
C       4.94528744     -1.64386548     -1.47359038
C       3.91397737     -0.87095439     -1.10890738
C       3.61821594     -0.47658760      0.31914216
C       3.53808843      1.06430151      0.49837984
N       2.22675613      1.49662476      1.05807354
C       2.06339399      0.86155291      2.38765221
C       2.15367811     -0.67012180      2.31502774
C       2.30174361     -1.10191958      0.84496388
C       1.08151104     -0.52460136      0.10262342
C       1.15686286      1.01598518      0.11280108
C      -0.20996254      1.71546793      0.40043834
O       0.04180062      3.12296769      0.57106180
C      -1.21827055      1.54186607     -0.72208550
C      -1.04394430      2.29576853     -1.89257612
C      -1.92649602      2.12879598     -2.93840301
N      -2.95824278      1.26561843     -2.91209082
C      -3.14846427      0.54409834     -1.79768208
C      -4.22277713     -0.33331613     -1.78181205
C      -4.51761141     -1.13356336     -0.67411769
C      -3.72013016     -1.05697161      0.45712133
O      -3.88274379     -1.77269647      1.61011125
C      -5.01931115     -2.62584755      1.68137699
C      -2.63156337     -0.17978030      0.45954727
C      -2.31424011      0.63491562     -0.65781049
O      -0.32310669      1.28942851      1.06697374
S      -0.06599092      0.44664426     -0.07292885
O       0.00017868      0.92818400     -1.42922640
O       1.29758270     -0.35654667      0.18995713
O      -1.14135318     -0.74229980     -0.01026200
H       5.64487256     -2.04784274     -0.74837813
H       5.10995984     -1.89281571     -2.51801223
H       3.24848655     -0.49615599     -1.88453887
H       4.43733308     -0.83978312      0.95647747
H       4.33921508      1.39651763      1.17222904
H       3.72219147      1.59470030     -0.44494421
H       2.83190111      1.24450389      3.07102804
H       1.10964850      1.16090079      2.83677330
H       3.00913714     -1.02567564      2.90174191
H       1.25358559     -1.11790899      2.75318611
H       2.31956228     -2.19480573      0.76917902
H       0.17114720     -0.88471086      0.59297669
H       1.04924829     -0.89003697     -0.93003440
H       1.46745538      1.34932940     -0.88814712
H      -0.61873760      1.38327073      1.35692976
H       0.93127020      3.15648646      0.98152465
H      -0.23448269      3.01468221     -1.98033635
H      -1.82357930      2.70269759     -3.85465448
H      -4.85579163     -0.39621853     -2.66474762
H      -5.37310664     -1.79686846     -0.73684410
H      -5.94911029     -2.05606911      1.57931965
H      -5.02336023     -3.09513282      2.66978667
H      -4.95976049     -3.42391580      0.93406848
H      -2.03464336     -0.14288583      1.36598885
H       1.60655182     -0.69316047     -0.67682079
H      -1.37386241     -0.87224983      0.93230717
