12
Fc1ccc(I)cc1
F      -2.76782174     -0.26124810     -0.04121817
C      -1.43468210     -0.13541630     -0.02136577
C      -0.86674201      1.13429465     -0.02795446
C       0.52271559      1.26803863     -0.00729490
C       1.32604790      0.12516258      0.01974865
I       3.39555757      0.32049869      0.05057062
C       0.75024943     -1.14788642      0.02625241
C      -0.63969289     -1.27648357      0.00551976
H      -1.50835216      2.00951444     -0.04908840
H       0.96193988      2.26233887     -0.01254555
H       1.36737147     -2.04248057      0.04723218
H      -1.10659093     -2.25633289      0.01014362
