57
Nc1nc2c(c(=O)[nH]1)N(C=O)C(CNc1ccc(C(=O)NC(CCC(=O)O)C(=O)O)cc1)CN2
N       8.15280581     -2.42471315      1.39884186
C       7.23732197     -1.56119113      0.89665256
N       6.81172649     -0.56992446      1.60381667
C       5.89949837      0.29492465      1.05326652
C       5.36477027      0.14365253     -0.18572520
C       5.78295654     -1.09185668     -0.91760743
O       5.21760115     -1.50374997     -1.92714438
N       6.80923427     -1.79602585     -0.36565158
N       4.45688193      1.07066543     -0.73318110
C       4.31528309      1.24947644     -2.10385602
O       3.68118563      2.15368816     -2.63725143
C       3.87170664      2.12113696      0.15605693
C       2.33368528      2.28595756     -0.01242285
N       1.65308040      0.99388591      0.15086800
C       0.26475887      0.92111794     -0.00670009
C      -0.30994544     -0.34024731     -0.22645174
C      -1.69569470     -0.50818667     -0.32623216
C      -2.54034001      0.59453414     -0.18308375
C      -4.02030916      0.46929633     -0.26603554
O      -4.74001272      1.20172474      0.40641413
N      -4.50450093     -0.51718187     -1.09021284
C      -5.91598316     -0.70857656     -1.45924569
C      -6.93105098     -0.50505570     -0.32625344
C      -6.59464375     -1.26151164      0.95847943
C      -7.05619292     -0.51108154      2.18073550
O      -7.90274484     -0.94058723      2.95176992
O      -6.42854493      0.66925367      2.37399272
C      -6.02308541     -2.09588384     -2.10453809
O      -5.07605121     -2.80071222     -2.42634986
O      -7.28128820     -2.48465785     -2.37635179
C      -1.98875523      1.84808072      0.09330725
C      -0.59944238      2.00385431      0.18750382
C       4.16683082      1.89334264      1.65805357
N       5.51932196      1.38460760      1.82773211
H       8.58768486     -2.06135321      2.24245451
H       8.82917861     -2.79904631      0.74705995
H       7.05163047     -2.65925278     -0.82389677
H       4.86399399      0.53166340     -2.72575108
H       4.34859522      3.06514594     -0.14371176
H       2.08993575      2.70640304     -0.99273824
H       1.98067448      3.00067474      0.74108573
H       2.11437182      0.26631779     -0.39768176
H       0.32862439     -1.21668398     -0.31709439
H      -2.08805008     -1.50902583     -0.48063517
H      -3.84519694     -1.00964202     -1.68758471
H      -6.11968945      0.01890048     -2.25457258
H      -7.02804703      0.56995947     -0.13637094
H      -7.93325229     -0.80837166     -0.65436411
H      -5.52688110     -1.46189056      1.08659208
H      -7.08643929     -2.24124377      0.94610383
H      -5.77070102      0.90876692      1.67276284
H      -7.18569051     -3.36114037     -2.80624939
H      -2.63386610      2.71178000      0.24110460
H      -0.21660221      2.99401167      0.41692425
H       4.05109026      2.82988614      2.21430386
H       3.47052244      1.16759112      2.09550745
H       5.78805024      1.20682436      2.79355578
