23
CCCCCCO[N+](=O)[O-]
C      -3.90950652     -0.49369219      0.47187633
C      -2.66847063      0.05153845     -0.21664707
C      -1.39055882     -0.51633193      0.40036151
C      -0.14461208      0.03452562     -0.29496231
C       1.13233768     -0.53289134      0.32153928
C       2.38218964      0.01160718     -0.36646699
O       3.51736865     -0.56843725      0.27037993
N       4.73953699     -0.12954204     -0.29255250
O       5.72162946     -0.62777566      0.25420035
O       4.67663708      0.66950467     -1.22830716
H      -3.95957401     -1.58375425      0.38473569
H      -3.91477530     -0.23306756      1.53507115
H      -4.81145429     -0.07462448      0.01494645
H      -2.71004530     -0.19821909     -1.28322940
H      -2.66549397      1.14502081     -0.13923740
H      -1.40051697     -1.61048433      0.32406653
H      -1.35596566     -0.26729755      1.46801075
H      -0.13467522      1.12859638     -0.21846104
H      -0.17923473     -0.21468745     -1.36249974
H       1.13098499     -1.62826970      0.25682098
H       1.17519744     -0.29542950      1.39196846
H       2.40717994      1.10344971     -0.26353532
H       2.36182162     -0.26390342     -1.42807847
