48
CC(C)Oc1ccc(S(C)(=O)=O)cc1C(=O)N1Cc2cc(C(F)(F)F)cnc2C1
C      -2.56573508     -3.60687836      0.93816545
C      -2.39680089     -2.39535698      0.02795122
C      -1.93927711     -2.83005378     -1.36056733
O      -1.37137984     -1.55900438      0.59132336
C      -1.79891369     -0.27957876      0.81908325
C      -2.67510221     -0.02010059      1.87705255
C      -3.10249220      1.28617486      2.12651634
C      -2.64709524      2.32852713      1.31323277
S      -3.17969226      3.99562334      1.62272329
C      -4.40751412      4.27630760      0.37370636
O      -3.84166926      4.01006511      2.91313422
O      -2.04569464      4.85892034      1.35710449
C      -1.73992915      2.08691660      0.27908868
C      -1.30403660      0.77827412      0.04871743
C      -0.37883062      0.55482546     -1.07623467
O      -0.79749429      0.76435553     -2.21196469
N       0.91320402      0.17540385     -0.80025771
C       1.87183167     -0.02312932     -1.88163629
C       3.15761897     -0.28830344     -1.17406044
C       4.41672676     -0.54177884     -1.68374584
C       5.46209334     -0.75833561     -0.77473420
C       6.86798061     -1.02148258     -1.21983611
F       7.48163787     -1.99324003     -0.48966302
F       6.95512677     -1.42321531     -2.51860783
F       7.65986890      0.08034264     -1.11620824
C       5.17578629     -0.69364687      0.59251878
N       3.94736853     -0.44625644      1.11026910
C       2.97425934     -0.25143713      0.20334805
C       1.53082934      0.03340023      0.52429800
H      -1.61781084     -4.14288783      1.05941200
H      -3.31327823     -4.30076979      0.54160055
H      -2.87962448     -3.29461716      1.93959801
H      -3.36016931     -1.87551173     -0.06328491
H      -2.65507492     -3.52076635     -1.81680473
H      -0.95801798     -3.31558646     -1.31790446
H      -1.83215431     -1.96142175     -2.01805776
H      -3.02060466     -0.83008508      2.51441224
H      -3.78081697      1.47901264      2.95598621
H      -3.94601973      4.18281643     -0.61114205
H      -4.79815705      5.28776856      0.50483484
H      -5.21248573      3.54919908      0.49650184
H      -1.36618404      2.89977584     -0.34076543
H       1.92206868      0.88284167     -2.49359068
H       1.55253752     -0.87718864     -2.48670237
H       4.58913595     -0.57165152     -2.75646994
H       5.95582270     -0.84568571      1.33714105
H       1.08155110     -0.80695170      1.05792243
H       1.41660711      0.96437113      1.08659622
