19
C=CC(=O)OCCCO
C      -1.99740937     -0.04036017     -2.56689416
C      -1.20909292     -0.99817599     -2.06127306
C      -0.63449932     -0.99571640     -0.69961393
O       0.08919462     -1.89610348     -0.29763152
O      -0.98845177      0.11102027     -0.00410991
C      -0.54511743      0.16996293      1.36089696
C       0.73492474      0.98938865      1.49877069
C       1.95047529      0.38317199      0.80833463
O       2.19854985     -0.93376366      1.27691491
H      -2.37906047     -0.12022702     -3.57988224
H      -2.28324096      0.83791180     -1.99619574
H      -0.94258313     -1.86485267     -2.65720930
H      -0.44184591     -0.82947882      1.79966212
H      -1.34426666      0.66771164      1.92162338
H       0.57185334      1.99388067      1.09149623
H       0.95281676      1.09327257      2.56841253
H       2.83575844      0.98733585      1.03140468
H       1.83628671      0.36355904     -0.28012780
H       1.59570819     -1.53271046      0.78542152
