38
CCOP(=O)(SC(C)CC)SC(C)CC
C       0.45725036      4.51835152      1.18056002
C       0.11239287      3.42326398      0.19269251
O       0.23689501      2.17084511      0.84454685
P      -0.22464490      0.85557711      0.01895353
O       0.28252792      0.89301233     -1.39719449
S      -2.31469426      0.76071626      0.01789261
C      -2.69489867     -0.55934587     -1.18366631
C      -2.93729254      0.07895717     -2.54972556
C      -3.91992713     -1.37669018     -0.74536713
C      -3.69053461     -2.19747963      0.51848941
S       0.54571778     -0.82709115      0.99176273
C       2.28387982     -0.92798809      0.44020814
C       3.09378485      0.19138894      1.08802594
C       2.81731485     -2.32589343      0.79183667
C       4.21449698     -2.58940911      0.24381458
H       1.47535361      4.38723907      1.56183061
H       0.37918832      5.50417345      0.71379189
H      -0.21352511      4.48249303      2.04537196
H      -0.91088549      3.55496781     -0.17148317
H       0.79967110      3.45713490     -0.65833719
H      -1.82868471     -1.22596203     -1.25457716
H      -3.13313633     -0.69395613     -3.30141856
H      -2.06577843      0.64715002     -2.89174387
H      -3.80273881      0.75136629     -2.53727288
H      -4.18419819     -2.07452790     -1.55032068
H      -4.79191540     -0.72556212     -0.60446367
H      -3.53712641     -1.56232408      1.39560700
H      -2.81977311     -2.85164325      0.40798403
H      -4.56293788     -2.82855021      0.71722205
H       2.29792038     -0.80345763     -0.64783482
H       2.69318940      1.17789994      0.83512341
H       4.12968761      0.17997138      0.73430879
H       3.11531348      0.09830876      2.17955969
H       2.15026161     -3.09210461      0.37551783
H       2.83364150     -2.47148703      1.87952971
H       4.50028442     -3.62944697      0.43207690
H       4.96211557     -1.95119465      0.72336466
H       4.25180449     -2.41870300     -0.83666604
