42
CCOC(=O)C1=NN(c2ccc(Cl)cc2Cl)C(C)(C(=O)OCC)C1
C       6.38787801      0.95066138     -0.03639794
C       5.35494050      0.40413020      0.92962930
O       4.08356671      0.40251393      0.27074294
C       3.07887313     -0.07859401      1.03233834
O       3.12718357     -0.46705359      2.18278855
C       1.81369243     -0.06258245      0.22003692
N       1.12504132     -1.12872374     -0.03924442
N       0.05867748     -0.73879445     -0.82691268
C      -1.09781557     -1.53836901     -0.69107440
C      -1.52495929     -1.95644873      0.58522938
C      -2.67135751     -2.73788901      0.75068375
C      -3.40547488     -3.12622206     -0.36388951
Cl     -4.82407617     -4.07776760     -0.16309318
C      -2.99433249     -2.75831364     -1.64064118
C      -1.84210709     -1.98020345     -1.80354969
Cl     -1.34012528     -1.65670135     -3.42839620
C      -0.09214602      0.75322052     -0.78278865
C      -0.39074500      1.33532657     -2.16727026
C      -1.10958757      1.23242582      0.27659461
O      -0.84489709      1.39352936      1.46388133
O      -2.34315287      1.44959775     -0.26512492
C      -3.35687086      1.93420514      0.62874523
C      -4.05374638      0.77810654      1.31905327
C       1.31446418      1.21583106     -0.35242509
H       6.12262864      1.96532084     -0.35120662
H       7.37981763      0.97154290      0.42350941
H       6.43086938      0.33734668     -0.94263181
H       5.62363618     -0.61805239      1.21943184
H       5.30880593      1.04016874      1.82084536
H      -0.95605526     -1.66588775      1.46769865
H      -2.97785998     -3.03655662      1.74982491
H      -3.55718671     -3.08882730     -2.50914643
H      -1.38916839      1.06545110     -2.52391470
H       0.33154596      0.98574581     -2.91364852
H      -0.34904062      2.43069422     -2.14470723
H      -4.07963192      2.48601281      0.01876483
H      -2.94163230      2.64365456      1.35355640
H      -4.44702978      0.07009387      0.58256064
H      -3.35768781      0.22632888      1.95786691
H      -4.88015003      1.13827269      1.93829091
H       1.33008689      2.01925736      0.38810161
H       1.95512894      1.48754840     -1.19814503
