24
CC(C)(O)C(=O)c1ccccc1
C      -2.34806751      1.26693971     -0.16025346
C      -1.83568290     -0.11463580     -0.55430409
C      -1.85269687     -1.10283000      0.60572359
O      -2.78484991     -0.62923902     -1.51446612
C      -0.48647172     -0.02660486     -1.30027466
O      -0.47710554      0.01231321     -2.53650966
C       0.82260526      0.00397781     -0.58474279
C       1.93612467     -0.52337787     -1.25655567
C       3.19505753     -0.52543781     -0.65331144
C       3.35372861      0.00746428      0.62320133
C       2.25675817      0.54720005      1.29244985
C       0.99438963      0.55046255      0.69020174
H      -2.33264580      1.94608259     -1.02092425
H      -3.39024414      1.21406985      0.17553697
H      -1.75903474      1.72721306      0.63574672
H      -1.31008761     -0.74045919      1.48204819
H      -2.88132710     -1.31913588      0.91766073
H      -1.41032247     -2.06001363      0.30597886
H      -2.46284415     -0.33805303     -2.39374883
H       1.82681023     -0.93843602     -2.25750403
H       4.04982485     -0.93973072     -1.18243360
H       4.33408651      0.00892114      1.09373809
H       2.38627409      0.97322787      2.28495402
H       0.17572092      1.00008168      1.23892480
