37
COc1cc(S(=O)(=O)Nc2ccccc2)c(OC)cc1N
C      -1.53984447      2.26283893      2.92203080
O      -2.26925284      2.04693597      1.71976336
C      -1.85531436      1.00790196      0.92017106
C      -0.93408882      0.02885472      1.29626623
C      -0.58538069     -0.97993627      0.38905844
S       0.58923747     -2.21608678      0.87900557
O       0.00038555     -3.50996145      0.60109127
O       1.04930227     -1.89302640      2.21486672
N       1.86939654     -1.99742447     -0.21329624
C       2.48063941     -0.70938665     -0.27567107
C       2.30323002      0.07667162     -1.41563367
C       2.86345985      1.35382080     -1.47573990
C       3.60352043      1.84263738     -0.39959678
C       3.78523284      1.05502694      0.73661826
C       3.22332121     -0.22105966      0.79878560
C      -1.15615163     -1.02340850     -0.88374116
O      -0.73960051     -1.95781377     -1.79525977
C      -1.80631560     -2.83734165     -2.16242405
C      -2.06888378     -0.03658170     -1.26244784
C      -2.46106213      0.95232321     -0.35372012
N      -3.29008390      2.00410242     -0.79217295
H      -1.70393132      1.44496591      3.63099448
H      -1.91833373      3.18112891      3.38127323
H      -0.47281527      2.40643447      2.72112855
H      -0.47485658      0.03516348      2.27950210
H       1.62008030     -2.41818638     -1.10972434
H       1.72240889     -0.28677545     -2.25876837
H       2.71966158      1.96910501     -2.36036671
H       4.03960112      2.83750568     -0.44662945
H       4.36461987      1.43262357      1.57525661
H       3.37573482     -0.82983783      1.68667223
H      -2.48020034     -2.35150529     -2.87510625
H      -2.36269101     -3.18892315     -1.28599515
H      -1.36447828     -3.70848555     -2.65524260
H      -2.45844845     -0.01776964     -2.27602109
H      -3.66635547      2.52074502      0.00266496
H      -4.00174299      1.72472460     -1.45759198
