34
CCCC(C)C1(CC)C(=O)NC(=S)NC1=O
C       4.17021209     -0.89979473     -0.28664720
C       3.10704765      0.15684369     -0.02262976
C       1.69463482     -0.42186147     -0.17372311
C       0.56253408      0.54890207      0.25619482
C       0.65591340      1.87158393     -0.52846030
C      -0.88650906     -0.09236367      0.20112695
C      -0.93056574     -1.45668299      0.95173212
C      -2.32712942     -2.06790709      1.07446795
C      -1.28902819     -0.32732035     -1.25045853
O      -0.87289792     -1.26768847     -1.92529957
N      -2.13255933      0.58516696     -1.82202003
C      -2.87052014      1.50864987     -1.15617014
S      -3.96830466      2.47088400     -1.94924246
N      -2.68784460      1.60551293      0.18493275
C      -1.81892769      0.86543557      0.93905192
O      -1.78582857      1.02794196      2.15847057
H       4.07738197     -1.30450606     -1.29953131
H       5.16954850     -0.46530264     -0.18411698
H       4.08623151     -1.72808709      0.42412351
H       3.26042079      0.98056830     -0.72748850
H       3.24143901      0.55607699      0.98908275
H       1.55205326     -0.72976175     -1.21559915
H       1.64871311     -1.32802952      0.43900955
H       0.75869541      0.80472156      1.30802022
H      -0.14240565      2.56677362     -0.25557724
H       1.59305717      2.39321371     -0.31008579
H       0.61235067      1.70167155     -1.60892706
H      -0.51529303     -1.34134058      1.96103740
H      -0.30871129     -2.19849527      0.43733080
H      -2.78300448     -2.22904488      0.09304597
H      -2.26256949     -3.03993116      1.57470049
H      -2.99664783     -1.43817487      1.66731077
H      -2.34619239      0.43099419     -2.79996784
H      -3.26529396      2.26135171      0.69681075
