37
CCNP(=S)(OC)OC(C)=CC(=O)OC(C)C
C      -4.88482568      2.44588390      0.67964056
C      -4.62587797      0.94930760      0.61161572
N      -3.22041093      0.69613880      0.32760330
P      -2.71150597     -0.86595514      0.17697070
S      -3.05430569     -2.13355121      1.60882439
O      -3.38233637     -1.28665133     -1.24145591
C      -3.05492365     -2.54112984     -1.80830651
O      -1.15877324     -0.75505937     -0.28370779
C      -0.06331181     -0.18650869      0.36534966
C      -0.32401095      0.58009222      1.63009172
C       1.13713646     -0.37219684     -0.20639725
C       2.42254531      0.18947951      0.26087802
O       2.56085917      1.11371133      1.04163436
O       3.41517164     -0.49975046     -0.35781027
C       4.75866144     -0.09571215     -0.03347146
C       5.16452710      1.08040159     -0.91445719
C       5.66234891     -1.29627124     -0.28653940
H      -4.28217623      2.91659900      1.46381315
H      -4.65080642      2.93370974     -0.27267210
H      -5.93915448      2.63609417      0.90475976
H      -5.25461656      0.50709105     -0.16844590
H      -4.90607131      0.49675870      1.56794748
H      -2.95267440      1.22264621     -0.49732625
H      -1.98563442     -2.74968216     -1.71811780
H      -3.63211748     -3.33167459     -1.32233223
H      -3.31762393     -2.52081514     -2.86916284
H       0.57065779      0.71105433      2.24251626
H      -1.03639341      0.05957417      2.27332436
H      -0.72434095      1.57099775      1.39606882
H       1.20639146     -0.96959781     -1.11030779
H       4.83249162      0.17696238      1.02643835
H       4.51858763      1.94549127     -0.73271611
H       6.20009448      1.37873510     -0.72438002
H       5.05999801      0.82890249     -1.97570453
H       5.59355732     -1.62852540     -1.32839251
H       5.35167693     -2.14357702      0.33439827
H       6.70718656     -1.06297293     -0.06017101
