22
COc1cc(C(=O)O)ccc1C(=O)O
C      -1.22032819      2.72313909      0.29762832
O      -1.61827326      1.39247569     -0.00586211
C      -0.66620865      0.40982228      0.04282191
C       0.71187005      0.66607414      0.09249938
C       1.63636099     -0.38979695      0.09902536
C       3.09993138     -0.15299163      0.15173966
O       3.96036298     -1.01322119      0.15361780
O       3.41662524      1.15255765      0.20161172
C       1.18470053     -1.71145405      0.04942199
C      -0.18375175     -1.97748387     -0.00475933
C      -1.11336243     -0.92353234     -0.00880773
C      -2.56564783     -1.24151925     -0.03390182
O      -3.48132489     -0.60571508      0.44988895
O      -2.80459481     -2.39360144     -0.69306745
H      -0.72446789      2.77939787      1.27245676
H      -0.58405294      3.13001132     -0.49473399
H      -2.12354518      3.33885174      0.34736491
H       1.08755192      1.68418832      0.11363919
H       4.39693786      1.15518070      0.23238914
H       1.89373401     -2.53772473      0.05276867
H      -0.52125852     -3.01155523     -0.03673622
H      -3.78125860     -2.47310305     -0.65810045
