18
Clc1ccc2ccccc2c1Cl
Cl      4.05916697      1.13564748     -0.19742487
C       2.45743197      0.48157896     -0.14170242
C       2.33209326     -0.89919881     -0.28050020
C       1.07189060     -1.49212395     -0.24507337
C      -0.08367274     -0.71784686     -0.07068441
C      -1.34243997     -1.34039605     -0.03856681
C      -2.50807634     -0.59653459      0.13331352
C      -2.43043885      0.78151932      0.27556642
C      -1.18611104      1.41556932      0.24583779
C       0.01944354      0.68996451      0.07276447
C       1.31518258      1.27984219      0.03420968
Cl      1.49115344      3.00524869      0.20607865
H       3.21274460     -1.52246865     -0.41698154
H       1.00026690     -2.57305018     -0.35581958
H      -1.42721254     -2.42010009     -0.14812755
H      -3.47417602     -1.09416200      0.15582137
H      -3.33548487      1.36873261      0.41006241
H      -1.17176149      2.49777811      0.36122643
