21
COc1ccc2ccc(=O)oc2c1
C      -3.64865924      0.58814762     -0.32630425
O      -2.94010127     -0.59619571      0.01893037
C      -1.57460042     -0.52182747      0.01757134
C      -0.92516393     -1.71308196      0.36390769
C       0.47179993     -1.78727925      0.40502812
C       1.23393458     -0.66187782      0.09766203
C       2.68679096     -0.67988987      0.12369301
C       3.36351059      0.43160087     -0.18096353
C       2.69263325      1.69150151     -0.54701961
O       3.34642398      2.69142951     -0.82044297
O       1.30459281      1.68327873     -0.56470273
C       0.57731622      0.51794582     -0.24554334
C      -0.81517936      0.60504994     -0.29025112
H      -4.71851417      0.36344667     -0.27816091
H      -3.44457793      1.39241785      0.38823361
H      -3.41951873      0.90057644     -1.35048506
H      -1.51663078     -2.59410476      0.60460547
H       0.94500330     -2.72703200      0.67768143
H       3.20135130     -1.59635997      0.39035006
H       4.44626070      0.46083064     -0.17362909
H      -1.26667180      1.55142320     -0.56446382
