32
CC(C)c1ccc(C(C)CC=O)cc1
C      -3.82459047      1.36632558     -0.32275735
C      -3.25409336      0.14772945      0.40711719
C      -3.98316166     -1.13074542     -0.01365199
C      -1.75441754      0.02715448      0.20433452
C      -0.89275015      0.10371981      1.30646365
C       0.49140847     -0.00648897      1.14325366
C       1.05037808     -0.19708539     -0.12781325
C       2.55401064     -0.31175557     -0.33500649
C       3.10977711     -1.53278548      0.40965275
C       3.25404430      0.98747477      0.09052624
C       4.65809769      1.12242607     -0.44812588
O       5.19624693      0.33197644     -1.21547319
C       0.18903808     -0.27398299     -1.23001872
C      -1.19483773     -0.16348975     -1.06609945
H      -3.31136916      2.28364816     -0.01332024
H      -4.88983109      1.48595324     -0.09719063
H      -3.72327844      1.27774547     -1.40990277
H      -3.45097152      0.29295864      1.47770580
H      -5.05152798     -1.05807528      0.21707420
H      -3.58400068     -2.00193977      0.51768575
H      -3.88766796     -1.32251922     -1.08794910
H      -1.29268472      0.24847050      2.30775334
H       1.12624235      0.05557962      2.02382839
H       2.74101247     -0.47591761     -1.40477147
H       3.01262326     -1.42916583      1.49589657
H       4.17060141     -1.68362515      0.18656861
H       2.57753234     -2.44425660      0.11448874
H       2.70133373      1.86095313     -0.27705685
H       3.30952348      1.06816953      1.18231450
H       5.19741962      2.02498574     -0.11189485
H       0.58761746     -0.42329810     -2.23148388
H      -1.83172494     -0.23013950     -1.94519438
