20
CCCCCCCl
C       3.18526571      0.26800294      0.35525017
C       1.91235494     -0.32732327     -0.22508946
C       0.66589008      0.28827883      0.41018703
C      -0.61232364     -0.31326033     -0.17631324
C      -1.86014875      0.30258033      0.45922689
C      -3.12900039     -0.30042380     -0.12887477
Cl     -4.56778607      0.42750024      0.62182616
H       4.06398414     -0.18635635     -0.11306954
H       3.22795669      1.34797601      0.18154904
H       3.24514629      0.09050456      1.43378856
H       1.89911328     -0.16098541     -1.30853800
H       1.91620480     -1.41151916     -0.06319811
H       0.68615730      0.12273491      1.49427728
H       0.66906426      1.37320879      0.24899144
H      -0.63248691     -0.14750659     -1.26038800
H      -0.61538876     -1.39817502     -0.01491453
H      -1.83754768      0.13679566      1.54346387
H      -1.85464784      1.38769104      0.29776664
H      -3.18950757     -0.12032015     -1.20640274
H      -3.17229987     -1.37940322      0.04745904
