48
CCCCCCCCCCCCOC(=O)C(C)O
C      -6.86684913      1.72836163      0.44478495
C      -5.63615046      1.31695713      1.23802585
C      -4.91818851      0.09171944      0.66568642
C      -4.27837886      0.34936270     -0.70077297
C      -3.57133958     -0.87909298     -1.28404155
C      -2.42003979     -1.45062768     -0.45078398
C      -1.29464251     -0.44537698     -0.19436364
C      -0.11994507     -1.10627952      0.53142713
C       0.98837018     -0.12183815      0.91670850
C       1.65369602      0.61788115     -0.24818727
C       2.26713678     -0.27389873     -1.33363363
C       3.34193370     -1.23588860     -0.82971218
O       4.36802446     -0.53804505     -0.10842272
C       5.37047424     -0.01079630     -0.86118668
O       5.44520760     -0.06062594     -2.08443927
C       6.38583606      0.73885308      0.00589611
C       6.92106059     -0.12690537      1.13354766
O       7.50165405      1.18056585     -0.77097472
H      -7.56302891      0.89076424      0.33631600
H      -6.60045663      2.08952646     -0.55262427
H      -7.39113634      2.53958601      0.96021821
H      -5.94691099      1.08737701      2.26437505
H      -4.94115199      2.16245246      1.29949395
H      -4.14389463     -0.20232235      1.38319807
H      -5.62118150     -0.74692269      0.59430932
H      -3.57768005      1.18911895     -0.63168779
H      -5.05149668      0.65215240     -1.41629813
H      -3.18928085     -0.61609502     -2.27850672
H      -4.31226792     -1.67308639     -1.44057153
H      -2.80033434     -1.83545443      0.50230486
H      -2.01139106     -2.31573881     -0.98838171
H      -0.95974123     -0.03085357     -1.15157075
H      -1.66671815      0.38742839      0.41257346
H      -0.48834574     -1.57790016      1.45127456
H       0.29108728     -1.91419695     -0.08447857
H       0.57349386      0.62518345      1.60532414
H       1.75282156     -0.66260153      1.48728177
H       2.43248143      1.27357160      0.16115212
H       0.92339737      1.28675244     -0.71903504
H       1.48301508     -0.84345840     -1.84442609
H       2.70964421      0.38854034     -2.08765070
H       2.90887273     -1.96951962     -0.14221372
H       3.77041192     -1.80958255     -1.66045249
H       5.89242190      1.63188799      0.40327647
H       7.39341702     -1.03283533      0.73702767
H       6.12776792     -0.43178575      1.82289753
H       7.68808372      0.41021849      1.70167616
H       7.18024120      1.27346764     -1.68992028
