12
O=C1CCC(=O)N1Cl
O      -0.01401057      2.47018136      0.31884099
C       0.07127582      1.25967882      0.17128198
C      -1.11092197      0.36858995     -0.07526047
C      -0.52863822     -1.02923522     -0.19205915
C       0.94942440     -0.84839732     -0.00486297
O       1.75220919     -1.76979068     -0.03543962
N       1.19152856      0.48011513      0.19427185
Cl      2.76458704      1.11396418      0.45074814
H      -1.81009892      0.43946856      0.76305524
H      -1.61491617      0.66799389     -0.99883644
H      -0.72762760     -1.46202123     -1.17681552
H      -0.92281156     -1.69054744      0.58507598
