15
O=c1[nH]c(=O)c2nc[nH]c2[nH]1
O      -2.87413663     -1.45538307      0.09691051
C      -1.86283633     -0.75975563      0.05885213
N      -1.93565684      0.61874717      0.03077440
C      -0.88166876      1.52185512     -0.01273290
O      -1.06835978      2.73409135     -0.03462820
C       0.41456635      0.87197422     -0.02826044
N       1.67808217      1.40689601     -0.06860120
C       2.48647259      0.36545851     -0.06456165
N       1.79743670     -0.82218528     -0.02323511
C       0.47779471     -0.49698093     -0.00017001
N      -0.60570245     -1.32760575      0.04244635
H      -2.85920896      1.02072519      0.04315462
H       3.56796725      0.40525911     -0.09007225
H       2.20615413     -1.74605817     -0.01262139
H      -0.54090413     -2.33703784      0.06274516
