26
CC1=NN(c2ccc(C)cc2)C(=O)C1
C      -4.36097319      0.50069922      0.74278482
C      -3.08010368     -0.09528327      0.27296946
N      -1.91362433      0.41186456      0.51883275
N      -0.99010392     -0.42697652     -0.08247416
C       0.38707372     -0.10821567      0.02913987
C       1.38240568     -0.90325314     -0.55104663
C       2.73744599     -0.56906907     -0.42722714
C       3.12988694      0.56408138      0.28978255
C       4.57813806      0.93820628      0.39235981
C       2.14442572      1.37250531      0.86000665
C       0.79164884      1.03604591      0.73464165
C      -1.57068560     -1.52127585     -0.74482907
O      -1.07053109     -2.44259085     -1.36984103
C      -3.04544257     -1.34965255     -0.53428676
H      -4.98687734      0.74069934     -0.12055818
H      -4.17090823      1.41248052      1.31482299
H      -4.88470371     -0.21973345      1.37634622
H       1.13712297     -1.79817271     -1.11502415
H       3.48245973     -1.20708097     -0.89803974
H       5.21332031      0.04615912      0.38689076
H       4.85984811      1.57850950     -0.44917570
H       4.77827347      1.47308062      1.32675581
H       2.41746863      2.27121682      1.40823195
H       0.05365695      1.68714094      1.19728418
H      -3.45780314     -2.18388359      0.03609604
H      -3.56141832     -1.20750188     -1.48553846
