51
Cc1cc(CC(C)CC(C)(C)C)n(O)c(=O)c1.NCCO
C       5.27579058     -0.80920618      0.93871658
C       4.17134440      0.06104477      0.42052231
C       2.94834031     -0.60122481     -0.00469970
C       1.89945878      0.10668925     -0.46614269
C       0.61806690     -0.55162143     -0.92263490
C      -0.57729961     -0.38445657      0.04949532
C      -0.27356478     -1.04397284      1.40275333
C      -1.85321542     -0.99921294     -0.58400101
C      -3.17523759     -0.19840455     -0.40269427
C      -3.10306312      1.14775402     -1.14676061
C      -3.50241426      0.05652168      1.07554655
C      -4.32285038     -1.02585863     -1.01771031
N       2.02957508      1.47530052     -0.54652302
O       0.94273272      2.19929765     -1.08200749
C       3.14412371      2.20230016     -0.18626574
O       3.22341557      3.42454289     -0.28780179
C       4.27717900      1.39897150      0.34096303
N       1.37381320     -0.22795271      0.71615764
C       0.58919818      0.50167003     -0.28491015
C      -0.91073313      0.29859101     -0.05316565
O      -1.23610543     -1.08300090     -0.21166259
H       5.59724640     -1.52132729      0.17112399
H       4.94244219     -1.37197540      1.81726351
H       6.15216397     -0.22215774      1.23407400
H       2.89946221     -1.68429646      0.06760346
H       0.35286820     -0.15055597     -1.91007365
H       0.79225298     -1.62434232     -1.08592276
H      -0.73002826      0.68368490      0.22997903
H      -0.00511925     -2.09865519      1.27742761
H      -1.13387791     -0.99721362      2.07554222
H       0.55628922     -0.54177572      1.91009656
H      -1.99295073     -2.01643847     -0.19291234
H      -1.69694888     -1.12628676     -1.66423671
H      -2.84761410      1.00236527     -2.20236725
H      -2.35606906      1.81863200     -0.71159891
H      -4.06622088      1.66982999     -1.10862360
H      -3.54110315     -0.88221079      1.63886507
H      -4.47749713      0.54565171      1.18400925
H      -2.76207108      0.70935712      1.54891990
H      -5.28153972     -0.50156680     -0.93285533
H      -4.14472408     -1.22143043     -2.08120171
H      -4.42786771     -1.99283887     -0.51285091
H       1.28902896      3.11552179     -1.04960276
H       5.15949593      1.94956454      0.63970013
H       2.33650080     -0.30608138      0.39333639
H       1.00690306     -1.18349384      0.74478020
H       0.83941608      1.56564482     -0.23714538
H       0.85829162      0.12426732     -1.27757622
H      -1.48719852      0.87303652     -0.78477706
H      -1.19955735      0.61559436      0.95458349
H      -2.17052851     -1.17827522      0.04037932
