29
CC[C@H](C)[NH2+][C@H](C)CC
C      -2.60689637      1.09000597      1.17255547
C      -2.61002634      0.14698921     -0.02431830
C      -1.24879445      0.04445704     -0.72771421
C      -1.37638359     -0.73128784     -2.03695878
N      -0.27690211     -0.68205564      0.17184267
C       1.19590899     -0.45271113     -0.09512342
C       1.95039745     -1.64920336      0.48006974
C       1.61198036      0.87780913      0.54853515
C       3.05702092      1.25572685      0.25321556
H      -2.24842384      2.08401930      0.88679412
H      -1.97902672      0.71756514      1.98649537
H      -3.62338241      1.19828298      1.56482592
H      -3.35380461      0.51883107     -0.74017139
H      -2.95094136     -0.84496235      0.29701988
H      -0.84859563      1.04506014     -0.91873508
H      -2.07884902     -0.23038008     -2.71183866
H      -1.74474972     -1.74890716     -1.86614306
H      -0.41784899     -0.80289251     -2.55968425
H      -0.45711916     -0.44404025      1.15570416
H      -0.48303820     -1.68924433      0.11019073
H       1.33149327     -0.42453867     -1.18083341
H       3.01953523     -1.58768060      0.25544681
H       1.83382113     -1.71035625      1.56760114
H       1.58462349     -2.58750919      0.04832627
H       0.97268243      1.68924823      0.18319121
H       1.47046393      0.83463343      1.63565752
H       3.27330676      2.25157245      0.65348991
H       3.75867219      0.55545202      0.71545218
H       3.24487639      1.27611640     -0.82489324
