19
OC(=S)COc1ccc(Cl)cc1Cl
O       3.01078103     -0.09963152     -2.39257687
C       1.83199648      0.05141255     -3.02275070
S       1.84478254      0.17353556     -4.67575022
C       0.59531669      0.09638417     -2.16161053
O       1.00460613     -0.04112223     -0.80211024
C       0.03464964     -0.02761872      0.16511459
C      -1.33456034      0.11175595     -0.08284960
C      -2.24606115      0.11302893      0.97913516
C      -1.79387251     -0.02464856      2.28994226
Cl     -2.92368348     -0.02158869      3.58649338
C      -0.43624866     -0.16430497      2.55547612
C       0.47215586     -0.16542561      1.49511441
Cl      2.15324408     -0.34149579      1.86614464
H       2.87301793     -0.15933633     -1.42872112
H      -0.05848897     -0.73604657     -2.44652180
H       0.10032087      1.06272810     -2.31239280
H      -1.73261175      0.22178072     -1.08688214
H      -3.30918180      0.22208963      0.77536346
H      -0.08616262     -0.27149662      3.57847218
