48
CCCCCCCCCCCC(=O)OCCS(=O)(=O)[O-].[Na+]
C      -3.54485985      4.02286181     -1.75529329
C      -3.24280719      3.02414281     -0.64851442
C      -3.39231330      1.58228934     -1.13538470
C      -3.10615879      0.58423431     -0.00804734
C      -3.25348179     -0.85991233     -0.49050862
C      -3.11077249     -1.89303837      0.63255406
C      -1.76747766     -1.89278676      1.36889458
C      -0.57840087     -2.21856561      0.46324372
C       0.72762474     -2.26524252      1.26031108
C       1.91074359     -2.65272842      0.36718911
C       3.23003407     -2.67886182      1.13305568
C       3.68726304     -1.29496309      1.52256967
O       3.70105070     -0.88120605      2.67487381
O       4.09707573     -0.61200659      0.42517777
C       4.36998743      0.78546715      0.63153475
C       4.73144588      1.42915501     -0.69147691
S       3.29955488      1.97777705     -1.58602519
O       2.70489575      2.97246666     -0.69280374
O       3.88170288      2.52736701     -2.81008516
O       2.50848105      0.76545493     -1.77614576
Na      0.00000000      0.00000000      0.00000000
H      -2.86655914      3.88813648     -2.60401908
H      -3.42669175      5.04687866     -1.38435049
H      -4.57254784      3.90895478     -2.11414881
H      -2.22151238      3.18869670     -0.28376136
H      -3.92188297      3.20532534      0.19377502
H      -4.41062343      1.42723442     -1.51455303
H      -2.70354337      1.40227652     -1.97140269
H      -2.08919486      0.75099362      0.36818326
H      -3.79798465      0.76512106      0.82624802
H      -2.52684098     -1.06272759     -1.28502163
H      -4.24528701     -0.98712726     -0.94191611
H      -3.28486205     -2.89081373      0.21046849
H      -3.90830740     -1.72786939      1.36819980
H      -1.82064532     -2.64168773      2.16904251
H      -1.60799766     -0.92848552      1.86381677
H      -0.48507480     -1.46313799     -0.32494283
H      -0.74690674     -3.18413408     -0.02792650
H       0.90426624     -1.28206714      1.71414073
H       0.63514734     -2.98946928      2.08104141
H       1.97646661     -1.95688553     -0.47741148
H       1.72999638     -3.64918763     -0.05288043
H       3.14489229     -3.28904319      2.03974923
H       4.01874820     -3.13727064      0.52387687
H       5.23888129      0.85231198      1.29917214
H       3.51338055      1.26958377      1.11429099
H       5.28087449      0.73895990     -1.34021542
H       5.34022115      2.32352895     -0.52144818
