45
CC(C)C(NS(=O)(=O)c1ccc(F)cc1)C(=O)NC1CCOC1O
C      -0.03905925     -0.05633598      3.28985666
C      -0.72755692     -0.91209167      2.21672417
C      -2.24203801     -0.68962996      2.32224575
C      -0.18153876     -0.57473901      0.80755817
N      -0.98257430     -1.28208400     -0.21741377
S      -1.35314553     -0.51539714     -1.65438078
O      -0.27759804      0.40048415     -1.97010641
O      -1.77183845     -1.54516515     -2.57725838
C      -2.79003535      0.42596531     -1.20877552
C      -4.03098965     -0.21679441     -1.12490882
C      -5.16305777      0.52135296     -0.77900470
C      -5.04388745      1.88595554     -0.53130842
F      -6.13222693      2.59092993     -0.19753708
C      -3.81438920      2.53165186     -0.62871640
C      -2.67660935      1.80150051     -0.97394896
C       1.28710629     -1.02922685      0.61996841
O       1.89771676     -1.71626774      1.43573810
N       1.86231425     -0.62144947     -0.56458206
C       3.28778004     -0.76737764     -0.78053202
C       3.72086464     -0.37080474     -2.17416603
C       5.20516002     -0.13764038     -1.98292375
O       5.41120997      0.28734542     -0.62727171
C       4.17775339      0.14321652      0.08092360
O       3.60662567      1.44106521      0.20529734
H      -0.20820903      1.01193093      3.11121380
H       1.04112160     -0.22544506      3.31535332
H      -0.42860043     -0.29594545      4.28548444
H      -0.53052938     -1.96867046      2.44303149
H      -2.59232566     -0.88753539      3.34110489
H      -2.50988293      0.34186466      2.06954891
H      -2.79325793     -1.36178505      1.65828653
H      -0.23193282      0.51136835      0.66132775
H      -0.86769404     -2.29367798     -0.29470537
H      -4.11938353     -1.28246057     -1.32480952
H      -6.13616977      0.04477167     -0.70319424
H      -3.75332891      3.59868691     -0.43791056
H      -1.71752680      2.30794074     -1.05728708
H       1.36957385      0.08534618     -1.11209401
H       3.56628757     -1.81401638     -0.60127275
H       3.50282942     -1.12688579     -2.93326393
H       3.23404580      0.56099568     -2.48510700
H       5.77061903     -1.06419292     -2.12791985
H       5.60038468      0.61845501     -2.66742052
H       4.35371559     -0.26691776      1.08033765
H       4.22027757      1.91170943      0.79381867
