39
CC(C)CC(c1ccc(O)cc1)c1ccc(O)cc1
C      -2.44019870     -1.48900665     -1.90514851
C      -2.19892390     -1.54110865     -0.39573858
C      -3.50417095     -1.90887310      0.31745335
C      -1.66113846     -0.20501246      0.16673860
C      -0.27431009      0.23666071     -0.37360830
C       0.81898548     -0.76562126     -0.01156219
C       1.20144227     -0.98236094      1.32313303
C       2.20216338     -1.90454284      1.63934894
C       2.82486762     -2.61483953      0.61944729
O       3.80621470     -3.52406325      0.88310785
C       2.46479859     -2.41704851     -0.70695051
C       1.46624700     -1.49438386     -1.02318069
C       0.12768412      1.66478416      0.01173164
C      -0.38597327      2.33047991      1.13619837
C       0.02595620      3.62909143      1.44765513
C       0.95826984      4.27087915      0.64412749
O       1.33197991      5.53594880      0.98833565
C       1.49068405      3.63534722     -0.47011284
C       1.07717167      2.33761500     -0.78176546
H      -2.90219587     -2.41816491     -2.25636687
H      -3.10470346     -0.66051485     -2.17252826
H      -1.50428117     -1.36807515     -2.45771492
H      -1.47779526     -2.34055893     -0.18875396
H      -4.27792867     -1.15268988      0.14618332
H      -3.88557460     -2.87128752     -0.04006206
H      -3.34656395     -1.99519003      1.39778409
H      -2.39558852      0.58234934     -0.05341331
H      -1.62258038     -0.28962050      1.26088109
H      -0.36827000      0.26388160     -1.46762792
H       0.72573169     -0.42595687      2.12762651
H       2.47950118     -2.04927725      2.67840159
H       3.95617283     -3.54404459      1.84231211
H       2.96041373     -2.97858612     -1.49351951
H       1.19619044     -1.35128801     -2.06678727
H      -1.10910519      1.85456180      1.79224953
H      -0.37886191      4.13619168      2.31888476
H       1.99102309      5.84667865      0.34640284
H       2.22486901      4.12399475     -1.10219142
H       1.50779753      1.84365150     -1.65094897
