57
C1=Cc2ccccc2C1.Cc1cccc(C)c1C.c1ccc2c(c1)CCC2
C      -2.32273968     -0.41121060     -0.10400192
C      -1.40678285     -1.33799129     -0.42891333
C      -0.09386771     -0.74278841     -0.24821715
C       1.16068439     -1.28858133     -0.45009572
C       2.27718303     -0.48613114     -0.19687079
C       2.12389727      0.83770921      0.25025009
C       0.85256744      1.38085369      0.45148260
C      -0.24534503      0.57681943      0.19745462
C      -1.70254524      0.89718083      0.32654459
C       2.58807216     -0.13006930      0.04985535
C       1.13471706     -0.52022720     -0.00237308
C       0.81066431     -1.88404534     -0.07168642
C      -0.51612309     -2.29899996     -0.11691710
C      -1.53809164     -1.35599705     -0.08650973
C      -1.24807297      0.01547406     -0.01742080
C      -2.39512066      0.99025207      0.01841878
C       0.10031306      0.44602354     -0.00625457
C       0.43053385      1.91693332      0.06886316
C       2.40932552     -0.74032526     -0.15511715
C       2.44013936      0.64821708      0.05039303
C       1.25570348      1.37068711      0.21053610
C       0.05510095      0.68420080      0.14867436
C       0.02439211     -0.69965445     -0.05614023
C       1.19364047     -1.42608923     -0.20339356
C      -1.38221533     -1.20986283     -0.03385462
C      -2.17323552      0.08672883     -0.26017327
C      -1.32815115      1.22665544      0.32675556
H      -3.39120861     -0.56922317     -0.14138377
H      -1.58362005     -2.34644071     -0.76519106
H       1.28005540     -2.30976495     -0.79502395
H       3.27568611     -0.88959132     -0.34715313
H       3.00592369      1.44458179      0.44119749
H       0.73376014      2.40236948      0.79649270
H      -1.96926842      1.13425127      1.36032683
H      -1.99437987      1.70795721     -0.34689810
H       2.88906848      0.33178549     -0.89562573
H       2.77041991      0.56610571      0.87484173
H       3.23174725     -1.00030411      0.21801827
H       1.59660105     -2.63595326     -0.08766081
H      -0.75383785     -3.35783422     -0.16961494
H      -2.56996266     -1.69922812     -0.11395554
H      -2.45802909      1.53404418     -0.92930295
H      -2.27192470      1.69961599      0.84312564
H      -3.35130011      0.47967595      0.17633056
H       0.49440817      2.22992494      1.11554599
H       1.37789715      2.14532120     -0.42857357
H      -0.32197967      2.52750211     -0.43910422
H       3.34192664     -1.28678784     -0.27181967
H       3.39631414      1.16404319      0.09090585
H       1.28097096      2.44206468      0.38035836
H       1.17128189     -2.50079126     -0.35119043
H      -1.57649624     -1.93901983     -0.82530808
H      -1.60911538     -1.64647208      0.94415970
H      -3.17733458      0.04485156      0.17328374
H      -2.29457518      0.24928896     -1.34036554
H      -1.48550119      2.16144084     -0.21843164
H      -1.54217094      1.37082430      1.39072751
