53
CCCCCCCCCCCCOC(=O)c1ccc(N)cc1
C      -8.54634578     -0.26527516     -1.45300226
C      -8.34762476     -0.88674403     -0.07921514
C      -6.95029313     -1.47436358      0.12946413
C      -5.84199140     -0.41912894      0.12618500
C      -4.48133638     -1.04415897      0.44317038
C      -3.37008901      0.00844780      0.43778268
C      -2.01060573     -0.62079153      0.75032810
C      -0.87729023      0.40270046      0.87703436
C      -0.53950411      1.10064237     -0.44272520
C       0.59305383      2.12550238     -0.31644200
C       1.94349146      1.57627918      0.14594887
C       2.50910134      0.49105220     -0.76563201
O       3.80098152      0.07890834     -0.28892763
C       4.85635867      0.79653661     -0.74843046
O       4.79965550      1.74493463     -1.51509459
C       6.13031077      0.27127958     -0.18600303
C       6.17362694     -0.80678619      0.70555565
C       7.40136681     -1.25664942      1.20516376
C       8.60082869     -0.66975105      0.79432178
N       9.80895695     -1.04551767      1.38977409
C       8.54777179      0.44289141     -0.04818859
C       7.32588970      0.89953515     -0.55348649
H      -8.31183190     -0.98184865     -2.24644012
H      -7.91782726      0.61973148     -1.58803016
H      -9.58830075      0.04734251     -1.57621351
H      -9.08395210     -1.68912518      0.04927852
H      -8.55712949     -0.13813767      0.69365711
H      -6.94095966     -2.00103489      1.09185598
H      -6.74835062     -2.22587328     -0.64354866
H      -6.07066707      0.35676773      0.86669513
H      -5.79210761      0.06989260     -0.85312689
H      -4.25361113     -1.82227633     -0.29556741
H      -4.52091537     -1.53135894      1.42502033
H      -3.34363956      0.49415380     -0.54377918
H      -3.59601242      0.78391437      1.17950853
H      -2.08132079     -1.16850141      1.69843661
H      -1.75629198     -1.35777922     -0.02113779
H       0.00683210     -0.12928722      1.24605936
H      -1.13872015      1.14965026      1.63617137
H      -1.42270502      1.63391628     -0.81235613
H      -0.28845368      0.35474985     -1.20531857
H       0.28200712      2.91371829      0.38051143
H       0.72669452      2.61254914     -1.29058421
H       2.65586368      2.40899948      0.20152500
H       1.87655060      1.19467459      1.17153845
H       2.55991167      0.82115210     -1.80997559
H       1.87443861     -0.40027408     -0.74073190
H       5.26224801     -1.29971635      1.03375635
H       7.41075602     -2.07391520      1.92202878
H       9.82794416     -2.00590019      1.71826976
H      10.63066650     -0.81000955      0.84181965
H       9.45981006      0.96751575     -0.32148101
H       7.31276007      1.75676635     -1.22392649
