29
CC(C)CC(=O)Oc1ccc([N+](=O)[O-])cc1
C      -3.20608160      1.27339637     -0.96977161
C      -3.16656861     -0.22815475     -0.67434511
C      -4.55650008     -0.70958709     -0.25416995
C      -2.14175559     -0.55774960      0.42181406
C      -0.70803675     -0.39022775     -0.03787075
O      -0.33615053     -0.36868780     -1.20309161
O       0.10476500     -0.30372501      1.09029358
C       1.45522832     -0.14940525      0.77585677
C       2.27567732     -1.27732103      0.75846807
C       3.63556910     -1.12860299      0.48087765
C       4.15551243      0.15269299      0.23768556
N       5.58636720      0.31202795     -0.05341327
O       6.01044762      1.45960924     -0.25153441
O       6.28707867     -0.70996043     -0.07866020
C       3.32531019      1.28416366      0.27660279
C       1.96616013      1.13010177      0.55478754
H      -3.94006735      1.49412716     -1.75225510
H      -3.48200757      1.84672502     -0.07808790
H      -2.23425115      1.63716255     -1.31763507
H      -2.89367578     -0.75202103     -1.59903655
H      -4.88571754     -0.21890741      0.66818531
H      -5.29482874     -0.49567905     -1.03426456
H      -4.55790916     -1.79113883     -0.08215818
H      -2.25122660     -1.60136546      0.73948377
H      -2.31342518      0.08688455      1.29223813
H       1.86140495     -2.26302738      0.95092501
H       4.27163347     -2.01109254      0.45704462
H       3.71929413      2.28163710      0.09291630
H       1.31375369      1.99812504      0.58911512
