46
Cc1cc(C)nc(NC(=O)NS(=O)(=O)c2ccccc2C(=O)OC2COC2)n1
C       2.07635200      2.81950266      0.86455416
C       2.83125417      1.65575384      0.29646531
C       3.98975732      1.85699448     -0.42499741
C       4.61144857      0.72785968     -0.92036100
C       5.87634067      0.85028415     -1.71589585
N       4.12068682     -0.51331129     -0.72278392
C       2.99102047     -0.61375821     -0.01099867
N       2.51059283     -1.89785642      0.14925298
C       1.39474724     -2.31394683      0.80316340
O       1.10674702     -3.50540375      0.80440704
N       0.60607352     -1.36178268      1.43095654
S      -0.82259265     -1.63540734      2.20461366
O      -1.38256733     -0.35101969      2.57430026
O      -0.62356838     -2.64659568      3.22101533
C      -1.86683209     -2.31076786      0.94070314
C      -2.21199878     -3.66742776      0.99713976
C      -3.10081534     -4.19983117      0.06167331
C      -3.65532601     -3.38199185     -0.92262630
C      -3.31695156     -2.02887971     -0.97992486
C      -2.42088523     -1.48854282     -0.04529454
C      -2.03937740     -0.07197779     -0.17750459
O      -0.89086406      0.31753421     -0.29595477
O      -3.15636800      0.69194820     -0.14490865
C      -2.89379296      2.11344409     -0.13711842
C      -4.10219765      3.02362543     -0.37580433
O      -3.43384198      3.71241790     -1.45934287
C      -2.35350538      2.74951178     -1.42432349
N       2.32668823      0.42527095      0.51636492
H       1.75204017      3.48822928      0.06115810
H       2.70812729      3.37570994      1.56391421
H       1.18619071      2.48003842      1.40440171
H       4.38937384      2.84898719     -0.59548921
H       6.23869988     -0.13515593     -2.02604904
H       5.70066047      1.44759318     -2.61598786
H       6.65705569      1.32629027     -1.11445323
H       3.06346330     -2.61490227     -0.28970103
H       0.81256323     -0.37643608      1.24469552
H      -1.79007492     -4.31646948      1.76344307
H      -3.36220600     -5.25523461      0.10430579
H      -4.34805811     -3.80164825     -1.64890613
H      -3.74649262     -1.40304625     -1.75948449
H      -2.33264292      2.40630198      0.75968271
H      -4.34447574      3.70149994      0.44741681
H      -5.01188710      2.52471199     -0.72374423
H      -1.37867288      3.23588081     -1.32869167
H      -2.36388835      2.11200335     -2.31368198
