45
CC1(C)CCC[C@@]2(C)[C@H]1CC[C@@]1(C)OCC[C@H]21
C       3.07210792      1.59823650     -0.69954642
C       2.29302152      0.44784274     -0.01144601
C       2.61525835      0.54256234      1.49014967
C       2.84147023     -0.87967247     -0.59966913
C       2.02800855     -2.12039324     -0.24182878
C       0.54466005     -1.96439152     -0.58332228
C      -0.10470566     -0.70394435      0.04529074
C      -0.23819907     -0.93449852      1.56516294
C       0.76675055      0.55518576     -0.35079272
C       0.08290981      1.89349353      0.04533570
C      -1.33670654      2.02619327     -0.54560649
C      -2.21454534      0.82386253     -0.19148775
C      -2.71602958      0.94866530      1.25761375
O      -3.41002301      0.75686861     -0.99984745
C      -3.76123271     -0.64265803     -1.13820053
C      -2.60004934     -1.47615750     -0.59007324
C      -1.48527281     -0.45515889     -0.61533960
H       2.85337094      2.56916476     -0.24339258
H       4.15471866      1.44392877     -0.61763825
H       2.83040908      1.66249566     -1.76633861
H       2.28231773     -0.32715468      2.05593725
H       2.17007876      1.43432858      1.94245082
H       3.69862730      0.60884426      1.64966112
H       3.88153345     -1.03226725     -0.28380484
H       2.86715904     -0.80298280     -1.69563400
H       2.16235920     -2.36226775      0.81689819
H       2.42868466     -2.97865307     -0.79514720
H       0.00676833     -2.86676045     -0.26644438
H       0.45184766     -1.92140939     -1.67686051
H       0.55768259     -1.56286579      1.97107255
H      -1.16408055     -1.45941662      1.81726551
H      -0.21154498     -0.00517301      2.13591297
H       0.75102557      0.57241825     -1.45460290
H       0.66491858      2.74266241     -0.32700158
H       0.04618887      2.00101615      1.13346532
H      -1.26749976      2.12279881     -1.63734785
H      -1.80043292      2.95929884     -0.20271500
H      -3.24027606      0.05068394      1.59803462
H      -1.92726675      1.17799967      1.97444401
H      -3.45045014      1.76144577      1.32588944
H      -3.92666004     -0.83726570     -2.20248499
H      -4.69312668     -0.83530368     -0.59815689
H      -2.82908851     -1.83310106      0.41781071
H      -2.40371755     -2.35377000     -1.21321524
H      -1.27096936     -0.34473068     -1.69445011
