49
CC(=O)OCC1OC(OC(C)=O)C(OC(C)=O)C(OC(C)=O)C1OC(C)=O
C       5.78288060     -1.17944307      0.18771751
C       4.71808043     -0.17264875      0.49481131
O       4.85718507      1.03847574      0.39951371
O       3.57635555     -0.80209383      0.88310776
C       2.46707546      0.06321516      1.18914263
C       1.76749643      0.53907475     -0.09780425
O       1.32808841     -0.55851292     -0.91646975
C       0.21903185     -1.31712092     -0.42149508
O      -0.11062513     -2.25723314     -1.45806325
C      -0.52881716     -3.48141320     -1.05545529
C      -0.81365838     -4.34345344     -2.24675097
O      -0.67090285     -3.83892704      0.10557374
C      -1.00567761     -0.42275650     -0.11171403
O      -2.00387083     -1.16075497      0.64085775
C      -3.01457873     -1.73066234     -0.06546957
C      -3.95681518     -2.43212139      0.86368162
O      -3.14479578     -1.68574515     -1.28019249
C      -0.57742902      0.74819220      0.78273549
O      -1.70948126      1.63095518      0.96514314
C      -1.66140474      2.39796069      2.09083603
C      -2.84180167      3.31677215      2.14769947
O      -0.77643370      2.34432247      2.93397694
C       0.60856860      1.50823517      0.17140777
O       0.21875702      2.05536390     -1.11777629
C      -0.23254205      3.33691607     -1.14011170
C      -0.56424292      3.73793607     -2.54438025
O      -0.34803191      4.06667615     -0.16696534
H       6.70535749     -0.65864958     -0.08743698
H       5.47058018     -1.80249327     -0.65404859
H       5.97920929     -1.79364364      1.07011322
H       2.80321965      0.91063073      1.79911695
H       1.79540545     -0.53001274      1.81590631
H       2.50469112      1.05675552     -0.72214690
H       0.54744885     -1.85314271      0.47673066
H      -1.12345665     -5.33654779     -1.91046974
H      -1.62346453     -3.90561954     -2.83604440
H       0.08976099     -4.44927507     -2.85282440
H      -1.44921571     -0.03107536     -1.03594819
H      -4.45385017     -1.70163728      1.50715168
H      -4.71475210     -2.96105594      0.27910482
H      -3.41081148     -3.16542578      1.46346685
H      -0.30630380      0.33351159      1.76280117
H      -3.76542400      2.74640902      2.02023961
H      -2.87215993      3.80367752      3.12594646
H      -2.75342374      4.08420070      1.37455705
H       0.94971227      2.31762391      0.82693420
H       0.35135515      3.79155057     -3.13896136
H      -1.04115650      4.72223127     -2.53733546
H      -1.26513234      3.02077882     -2.98040956
