63
CCC(C)C(=O)OC1CC(O)C=C2C=CC(C)C(CCC3CC(O)CC(=O)O3)C21
C       5.26998168      1.49837550     -0.89528752
C       4.27468705      2.56978571     -0.46957314
C       3.02485155      2.03557624      0.24869691
C       3.36449037      1.34649554      1.57095798
C       2.18455178      1.19336109     -0.70258697
O       1.76303424      1.61161320     -1.77383089
O       1.95533690     -0.05884420     -0.22086771
C       1.13708642     -0.92475106     -1.04152805
C       2.02495865     -1.68886980     -2.03121294
C       2.99701254     -2.63048363     -1.32066359
O       4.11409494     -1.90230510     -0.82388989
C       2.39176308     -3.35206708     -0.16004460
C       1.19998729     -3.04527492      0.38107280
C       0.68275646     -3.81899724      1.48952422
C      -0.42957309     -3.47642004      2.15105826
C      -1.23088543     -2.23090017      1.86140634
C      -1.74632999     -1.64197323      3.18003228
C      -0.40589477     -1.18944449      1.04298697
C      -1.25528492      0.03449183      0.60871712
C      -2.43267939     -0.28232314     -0.31791354
C      -3.13923643      0.97068946     -0.86287820
C      -3.80581214      1.79549546      0.22836221
C      -4.56306981      2.94156833     -0.41324499
O      -3.62998048      3.83519853     -1.01545999
C      -5.55709528      2.43927155     -1.43747561
C      -5.05987270      1.32397437     -2.31771808
O      -5.59990040      1.08301444     -3.39483541
O      -4.11286552      0.50042437     -1.81887155
C       0.33141678     -1.90017435     -0.13777621
H       5.67284898      0.95702149     -0.03462620
H       4.81156781      0.77643239     -1.57759803
H       6.11325698      1.96101424     -1.41870323
H       3.96980617      3.13034342     -1.36228116
H       4.78720313      3.28579438      0.18452347
H       2.39094095      2.89617916      0.50348704
H       3.94975289      2.01042883      2.21572233
H       2.45030438      1.07944213      2.11275605
H       3.93619565      0.42525296      1.42312437
H       0.41697415     -0.32651492     -1.61385699
H       2.59316578     -0.97786467     -2.64229342
H       1.38161430     -2.27098807     -2.70294624
H       3.38120432     -3.35683232     -2.04480163
H       3.76741226     -1.31816341     -0.12604269
H       2.99016515     -4.16636866      0.24309813
H       1.21492493     -4.72213376      1.78125377
H      -0.78556748     -4.13416426      2.94119394
H      -2.10100544     -2.55574886      1.27797473
H      -2.25675489     -2.40355172      3.78091243
H      -2.47201247     -0.84272608      3.00305975
H      -0.92771419     -1.23429266      3.78356671
H       0.36895163     -0.79066015      1.71664277
H      -1.62618855      0.53824800      1.50765532
H      -0.60947145      0.77408291      0.12363595
H      -2.09100366     -0.87688120     -1.17324328
H      -3.16991328     -0.90765037      0.19962461
H      -2.40623640      1.57022561     -1.41708528
H      -4.50575009      1.17396980      0.79983637
H      -3.05421682      2.19239261      0.91847524
H      -5.08805497      3.50952571      0.36328848
H      -4.11352861      4.62673771     -1.31451793
H      -6.44410857      2.05141261     -0.92344424
H      -5.86502308      3.26386844     -2.09041691
H      -0.42726893     -2.37433847     -0.77827202
