20
CC(C)c1nc([N+](=O)[O-])c[nH]1
C      -2.01810285     -1.25729883     -0.13662139
C      -1.46602009      0.16414995     -0.23499384
C      -1.89350294      0.99579139      0.97356723
C       0.02880188      0.14059937     -0.35496207
N       0.88555159     -0.34041953      0.52502640
C       2.13399169     -0.13745894     -0.02696120
N       3.34107570     -0.54235027      0.65918853
O       3.22571519     -1.08214984      1.76752920
O       4.41267259     -0.31439978      0.07633793
C       2.03133579      0.47484589     -1.25798636
N       0.68788372      0.64531670     -1.45315997
H      -1.64482783     -1.77424776      0.75485278
H      -3.11213796     -1.24627421     -0.08687809
H      -1.72733484     -1.85147293     -1.01026746
H      -1.89111970      0.63028440     -1.13329111
H      -1.51514765      0.57042301      1.91015866
H      -2.98532036      1.04688215      1.04307262
H      -1.51321210      2.02071481      0.89770251
H       2.77209332      0.78955909     -1.97976922
H       0.24760485      1.06750534     -2.26051105
