25
CCCOC(=O)c1ccc(O)c(Br)c1
C       4.48768894     -1.32026698     -0.16695457
C       2.97477770     -1.31581013     -0.29052389
C       2.36565445     -0.02646963      0.24614031
O       0.94239644     -0.11068193      0.08963380
C       0.26857584      0.98010865      0.53049647
O       0.76807835      1.97729909      1.02613350
C      -1.19614379      0.80685263      0.32999068
C      -2.04544908      1.84852742      0.73390881
C      -3.42762964      1.73741864      0.56855944
C      -3.96221295      0.58671818      0.00009862
O      -5.32042532      0.53321483     -0.13702525
C      -3.12634679     -0.45555154     -0.40520636
Br     -3.84668595     -2.02704648     -1.18073787
C      -1.74370285     -0.35066317     -0.24265102
H       4.92971653     -0.49292063     -0.73122366
H       4.79602226     -1.22639855      0.87918541
H       4.89769776     -2.25615830     -0.55917769
H       2.55440476     -2.17314696      0.24881043
H       2.68631034     -1.44949008     -1.34006550
H       2.74525511      0.83362500     -0.31789281
H       2.61026858      0.09304192      1.30815424
H      -1.63305198      2.75248018      1.17984538
H      -4.08309521      2.54577358      0.88230556
H      -5.54168611     -0.32355310     -0.54560586
H      -1.10041740     -1.16690264     -0.56099881
