51
CC(C)(C)N(CC(=O)c1ccc(O)c(CO)c1)Cc1ccccc1.[Cl-].[H+]
C      -0.81024824     -3.12364768     -0.24431059
C      -1.57902978     -2.07290134     -0.99120138
C      -3.03885949     -2.57822607     -0.99664130
C      -1.17461902     -2.11265202     -2.46023233
N      -1.53281467     -0.82525405     -0.40164690
C      -0.39159940     -0.07901949     -0.20258858
C       0.49152578     -0.55388712      0.87288473
O       0.00311991     -1.25405118      1.79408054
C       1.91765296     -0.25502096      0.93087841
C       2.65947982     -0.75231075      1.98753856
C       4.01292179     -0.53195454      2.13827337
C       4.69618677      0.22126624      1.20233174
O       6.05092355      0.48758049      1.28046117
C       3.97620236      0.72596372      0.14204048
C       4.70003130      1.54280647     -0.88266454
O       3.82151057      1.96183997     -1.86798711
C       2.60180075      0.48960524      0.00917068
C      -2.79962458     -0.15099465     -0.33186496
C      -2.78793636      1.16172732      0.30037143
C      -2.91540692      1.29685414      1.66348947
C      -2.91301722      2.53637656      2.28627397
C      -2.77985243      3.68128669      1.53293168
C      -2.65187206      3.55851142      0.16756198
C      -2.65662163      2.32601635     -0.42443110
Cl      0.00000000      0.00000000      0.00000000
H       0.00000000      0.00000000      0.00000000
H       0.27833534     -2.94626723     -0.21806965
H      -1.01381828     -4.08352807     -0.82061489
H      -1.28020013     -3.31236420      0.73577360
H      -3.36958249     -2.87317712     -0.00688394
H      -3.70487799     -1.92837829     -1.57506502
H      -2.97976313     -3.53083074     -1.60199397
H      -1.52682507     -3.06021802     -2.93141105
H      -0.06593746     -2.15831549     -2.50751447
H      -1.59787764     -1.29015501     -3.03342432
H       0.26318541      0.07804595     -1.09407788
H      -0.69792912      0.96397974      0.10672088
H       2.19462295     -1.35574986      2.76771231
H       4.57139803     -0.93096873      2.97355363
H       6.64528544      0.15341895      2.02592156
H       5.19912016      2.40916532     -0.39340283
H       5.51167917      0.90846709     -1.30148482
H       3.23415864      2.64914717     -1.48030142
H       2.08031415      0.89757782     -0.82404615
H      -3.51128209     -0.84768259      0.15451696
H      -3.21984727      0.01561675     -1.37003107
H      -3.02302879      0.43069298      2.29693769
H      -3.01179339      2.65811080      3.35862075
H      -2.77857579      4.66000103      2.02562060
H      -2.54678206      4.48777116     -0.41873141
H      -2.54983235      2.30572585     -1.51668843
