7
O=[Mo](=O)(O)O
O      -0.34820071      1.57916762     -1.41968259
Mo      0.13658237      0.38833717     -0.13222966
O       0.22157721      1.44296397      1.53280893
O       1.25597003     -0.57641237     -0.34327448
O      -1.68031786     -0.46828637      0.35711616
H       1.93357745     -1.06664974      0.15417617
H      -1.51918848     -1.29912027     -0.14891453
