42
CCOc1cc(NC(=O)c2ccccc2)c(OCC)cc1N
C      -3.92887021     -4.45085639     -0.24193036
C      -2.82053687     -3.41366987     -0.20832033
O      -3.41826306     -2.14238657      0.04330019
C      -2.58621089     -1.04640755      0.03290014
C      -1.19310468     -1.09602628     -0.07058989
C      -0.44399392      0.08379378     -0.07096238
N       0.96634744      0.11354871     -0.17554691
C       1.84513241     -0.94881307     -0.20921463
O       1.56337952     -2.13567179     -0.09051108
C       3.27919688     -0.57150195     -0.37026220
C       4.25210032     -1.36669341      0.24863023
C       5.60477872     -1.04692867      0.12130456
C       5.99091292      0.06096516     -0.63247867
C       5.02804176      0.84626461     -1.26677232
C       3.67298162      0.53083946     -1.14151657
C      -1.09763865      1.33092366      0.01572808
O      -0.27046542      2.43137081     -0.02440374
C      -0.88855904      3.71563562      0.04705463
C       0.20877558      4.76324417     -0.01138370
C      -2.48938387      1.37806088      0.12364620
C      -3.23571484      0.19582952      0.17483344
N      -4.64504340      0.26622728      0.16453060
H      -4.65734018     -4.21121257     -1.02366056
H      -3.52342882     -5.44882954     -0.43064503
H      -4.47355098     -4.46401186      0.70799053
H      -2.11930018     -3.66785256      0.59462328
H      -2.30540417     -3.41078879     -1.17593139
H      -0.68921861     -2.04915526     -0.15655937
H       1.34492072      1.05500268     -0.15496895
H       3.95585214     -2.23593721      0.83262780
H       6.35600669     -1.66524773      0.60642155
H       7.04543711      0.30623667     -0.73442879
H       5.33483138      1.69861764     -1.86827876
H       2.94298801      1.13506558     -1.67324149
H      -1.43540989      3.82320843      0.99077985
H      -1.56561122      3.85990047     -0.80265247
H       0.78525717      4.66630601     -0.93741110
H       0.91252572      4.63085205      0.81713077
H      -0.21146992      5.77156797      0.03950211
H      -3.02329941      2.32028442      0.16147316
H      -5.02365129      1.02827015      0.71460461
H      -5.04399658     -0.64002465      0.41048501
