17
CCCC(C)Cl
C      -2.52150237      0.34184824     -0.07267375
C      -1.27166556     -0.50319625     -0.26833165
C      -0.01113573      0.26151042      0.14711870
C       1.28562658     -0.51519552     -0.11659230
C       2.50976819      0.34878591      0.16287763
Cl      1.37306442     -1.98573253      0.89948342
H      -3.41039226     -0.22100977     -0.37438002
H      -2.64055025      0.62829287      0.97713808
H      -2.47704888      1.25443437     -0.67560969
H      -1.37605215     -1.42246355      0.31767712
H      -1.19820729     -0.79513054     -1.32233610
H       0.02381097      1.20480536     -0.41333488
H      -0.07865515      0.53200054      1.20881143
H       1.31410894     -0.84986495     -1.15911360
H       2.53626127      0.68363328      1.20572997
H       3.43471960     -0.20156117     -0.04107199
H       2.50784968      1.23884331     -0.47539238
