45
CCCCCCCCCCNCC(O)CO
C      -6.67741594      1.38461137     -1.29395848
C      -5.31502234      1.09271066     -0.68379988
C      -4.83640666     -0.31573041     -1.03744947
C      -3.41692920     -0.61511098     -0.54480670
C      -3.30153255     -0.65133244      0.98165695
C      -1.93942456     -1.15221096      1.47407754
C      -0.78260078     -0.21566096      1.11454561
C       0.53542562     -0.70826963      1.71818062
C       1.70680161      0.25636496      1.49849246
C       2.11803040      0.38186413      0.02713128
N       3.23708453      1.30650982     -0.18922004
C       4.54623742      0.80289135      0.26487283
C       5.08333376     -0.32126888     -0.63771825
O       5.01031540      0.09673197     -2.01235140
C       6.53988127     -0.65849448     -0.31876341
O       6.98721018     -1.69538334     -1.19244984
H      -7.00600016      2.39286180     -1.02242999
H      -6.63964660      1.32221027     -2.38632455
H      -7.42849395      0.67325094     -0.93482328
H      -5.38521072      1.20959567      0.40282409
H      -4.59349858      1.83371926     -1.04629111
H      -5.53278011     -1.05799615     -0.62897973
H      -4.85177236     -0.43626110     -2.12782309
H      -3.11249134     -1.58797908     -0.94978660
H      -2.73022705      0.13149231     -0.95948479
H      -4.07546409     -1.31694077      1.38383977
H      -3.48947761      0.34419840      1.40025955
H      -1.74603783     -2.15277320      1.06842193
H      -1.98953394     -1.25793630      2.56492999
H      -1.00036735      0.79441236      1.48097112
H      -0.68660740     -0.15570378      0.02621063
H       0.40513838     -0.84361537      2.79932869
H       0.78720829     -1.69277378      1.30466431
H       1.44699349      1.24375990      1.90009203
H       2.55131093     -0.11385825      2.09058024
H       2.32954929     -0.60337590     -0.40133442
H       1.27528618      0.78254174     -0.54656156
H       3.03608906      2.18085983      0.29991259
H       5.23658074      1.65325297      0.20016285
H       4.52915435      0.49292230      1.31424836
H       4.47473138     -1.22761881     -0.55211481
H       4.18772098      0.62907749     -2.05601774
H       7.19162030      0.20616901     -0.48078073
H       6.65431642     -1.00274856      0.71310154
H       6.66692114     -1.42896539     -2.07852440
