28
COC(=O)c1cc(C(=O)OC)cc(S(=O)(=O)[O-])c1.[Na+]
C      -4.62238148      1.65342160      0.42959264
O      -3.47055691      0.81811070      0.33071809
C      -2.30597206      1.49141406      0.16601937
O      -2.19115958      2.70598936      0.09637410
C      -1.15705465      0.55016050      0.07406172
C       0.12533205      1.08777897     -0.12658103
C       1.24983761      0.25075853     -0.21980822
C       2.58006342      0.88362244     -0.43054008
O       2.74878272      2.09149385     -0.50672695
O       3.55242678     -0.05550757     -0.52680394
C       4.86144620      0.47368794     -0.72839776
C       1.08924735     -1.13272087     -0.11143846
C      -0.19111954     -1.66048621      0.08157390
S      -0.39314193     -3.45165222      0.25182432
O       0.87809150     -3.86240665      0.83983854
O      -1.54923802     -3.56046356      1.13619753
O      -0.61158696     -3.84655296     -1.13500952
C      -1.31429513     -0.83373554      0.18202190
Na      0.00000000      0.00000000      0.00000000
H      -4.75519539      2.23416961     -0.48861021
H      -4.54387442      2.31446509      1.29843326
H      -5.49728204      1.01093299      0.56195124
H       0.24940799      2.16704703     -0.20994187
H       4.90902875      1.03202866     -1.66860849
H       5.15311083      1.10818177      0.11444009
H       5.56098235     -0.36465501     -0.78832098
H       1.93395569     -1.81518652     -0.17423252
H      -2.28885513     -1.28989599      0.34134982
