54
CCCCCCCCCCCC(=O)N[C@@H](CCC(=O)O)C(=O)[O-].[Na+]
C       6.06952219      2.71426989      2.53409933
C       5.59850199      1.43772749      1.85349429
C       6.27973762      1.24614793      0.49659088
C       5.94429093     -0.09169381     -0.17433451
C       4.45762387     -0.34102909     -0.45321591
C       3.83972243      0.68341867     -1.41273069
C       2.38927210      0.35189407     -1.78279062
C       1.41371825      0.59848901     -0.62534780
C      -0.04501774      0.31775226     -1.00028308
C      -0.34351936     -1.17994279     -1.13898076
C      -1.82346221     -1.45781289     -1.40393426
C      -2.70848175     -1.26287047     -0.18431367
O      -2.27523115     -0.99336068      0.93100733
N      -4.04151404     -1.42210182     -0.47782810
C      -5.09158049     -1.49417133      0.55752615
C      -5.40302572     -0.11437573      1.15788810
C      -6.08994475      0.83757612      0.16998829
C      -7.38395227      1.39909366      0.70838492
O      -7.56526612      2.59747877      0.89598503
O      -8.35084901      0.48632980      0.93653560
C      -6.37484979     -2.20478737      0.00545163
O      -6.14345645     -3.09221107     -0.86773875
O      -7.48222474     -1.75455930      0.42791299
Na      0.00000000      0.00000000      0.00000000
H       5.84778728      3.59068211      1.91520583
H       7.14861865      2.68376216      2.71533243
H       5.56495959      2.83931365      3.49937016
H       5.81494633      0.58212499      2.50470879
H       4.51183213      1.48965895      1.73081808
H       6.01926301      2.07763758     -0.17034783
H       7.36866223      1.29085918      0.63366059
H       6.49893045     -0.15582548     -1.11788854
H       6.31848299     -0.90709939      0.45811757
H       4.35987711     -1.34442832     -0.89248022
H       3.90649209     -0.36567222      0.49267089
H       3.88159325      1.69099277     -0.97988011
H       4.43349579      0.70722782     -2.33606000
H       2.09578686      0.98738025     -2.63169125
H       2.33063544     -0.68762265     -2.13056750
H       1.49209968      1.65011739     -0.31721284
H       1.68492637     -0.00764657      0.24802768
H      -0.29942158      0.83800747     -1.93161976
H      -0.68105438      0.74652304     -0.21753068
H       0.23493227     -1.58927096     -1.97375202
H      -0.01857507     -1.70757422     -0.23491313
H      -1.93224906     -2.50350253     -1.71734204
H      -2.18882979     -0.82277783     -2.21877878
H      -4.28554358     -1.99582910     -1.28519778
H      -4.69815751     -2.13717727      1.35691670
H      -4.47362482      0.35536455      1.50311273
H      -6.01558331     -0.24869373      2.05860469
H      -6.29593077      0.38668484     -0.80756428
H      -5.42108337      1.68652943     -0.02626124
H      -8.07328207     -0.46076196      0.71917551
