22
CC1(C)CC(=O)CC(=O)C1
C      -1.35948752      0.19266555      1.12601885
C      -0.67707704     -0.19721866     -0.19972967
C      -1.75263107     -0.75871763     -1.14782847
C       0.38712809     -1.28223382      0.03817752
C       1.56197834     -0.75759156      0.83389414
O       2.07637317     -1.43623184      1.72284512
C       2.16480719      0.54951433      0.40199310
C       1.14452026      1.55150663     -0.06005972
O       1.31775560      2.75993237      0.09832535
C      -0.03160996      1.03394402     -0.85851727
H      -2.13400363      0.95031373      0.96084739
H      -1.83998035     -0.67601048      1.59047102
H      -0.64927212      0.60207900      1.85187967
H      -2.23729582     -1.64238675     -0.71748766
H      -2.53163238     -0.01431340     -1.34778759
H      -1.31933577     -1.05304827     -2.11042759
H      -0.04685128     -2.13288618      0.57728994
H       0.78275877     -1.66004433     -0.91252024
H       2.70703784      0.97658854      1.25192247
H       2.86315685      0.35830146     -0.41802858
H      -0.76550809      1.84224189     -0.96165751
H       0.33916892      0.79359541     -1.86243264
