35
CC(NC(=O)Cc1ccccc1)c1ccccc1
C      -1.23880526      2.18321003      0.76595804
C      -1.48081367      0.68879261      1.00134449
N      -0.22972117     -0.04556967      1.06054002
C       0.60413891      0.01141461      2.15416289
O       0.30679240      0.58973287      3.19658968
C       1.90679225     -0.75798165      2.00562659
C       2.65963299     -0.44832507      0.73225662
C       3.18336641      0.83405405      0.51441100
C       3.86138539      1.12841623     -0.66890554
C       4.02459579      0.14529817     -1.64292277
C       3.51223161     -1.13386837     -1.43416498
C       2.83336853     -1.43149731     -0.25167588
C      -2.37716092      0.06909526     -0.05637251
C      -3.47037723     -0.71997312      0.33546526
C      -4.29784366     -1.31755595     -0.61734378
C      -4.03982692     -1.14157338     -1.97463729
C      -2.95221373     -0.37197413     -2.38065886
C      -2.12344077      0.22645537     -1.42917649
H      -0.68591625      2.62498416      1.60212193
H      -0.64705110      2.36611431     -0.13769521
H      -2.18631090      2.72418148      0.66781281
H      -1.96528787      0.59334072      1.98183480
H       0.13829638     -0.41369033      0.19233433
H       2.55277484     -0.52071429      2.85968420
H       1.67223515     -1.82703705      2.07246298
H       3.06434048      1.61236143      1.26644387
H       4.26471980      2.12506094     -0.82945791
H       4.55569274      0.37503011     -2.56304699
H       3.64507133     -1.90159262     -2.19232822
H       2.44309824     -2.43655676     -0.10534946
H      -3.68400567     -0.87631854      1.39117731
H      -5.14285612     -1.92243567     -0.29859712
H      -4.68441595     -1.60694286     -2.71559703
H      -2.74730085     -0.23839114     -3.43978025
H      -1.27518522      0.81445557     -1.77204287
