28
O=C(O)CC(CSC(=O)O)c1ccccc1
O      -0.71258246      3.15562856     -0.83681028
C      -0.30268045      2.78362303      0.24978026
O      -0.63598835      3.45082381      1.37191760
C       0.63405427      1.63783527      0.52339455
C       0.39004395      0.46346734     -0.44258189
C       1.50931721     -0.59778176     -0.36979014
S       3.08331250      0.00297255     -1.06630326
C       4.05977004     -1.42266104     -0.82795345
O       3.67676259     -2.42310261     -0.24152915
O       5.31012296     -1.37945980     -1.32870964
C      -0.96775868     -0.18316440     -0.17066208
C      -1.22387070     -0.90504071      1.00586273
C      -2.47685932     -1.47946605      1.22949716
C      -3.49028102     -1.33704038      0.28481963
C      -3.25323302     -0.61765102     -0.88363141
C      -2.00128096     -0.04333293     -1.10997305
H      -1.23358340      4.16032952      1.05538275
H       0.51091447      1.31328243      1.56353171
H       1.64742371      2.04009160      0.42370744
H       0.37092198      0.85072927     -1.47134627
H       1.21347081     -1.48861020     -0.93672216
H       1.68149974     -0.90328199      0.66847577
H       5.67888377     -2.25436635     -1.09394834
H      -0.45456895     -1.02767499      1.76472676
H      -2.66258664     -2.03758779      2.14363125
H      -4.46535404     -1.78349342      0.46039362
H      -4.04406847     -0.49950319     -1.61988115
H      -1.84180156      0.52443529     -2.02535761
