21
Clc1ccc2oc3ccc(Cl)cc3c2c1
Cl      4.10585263      2.39993476     -0.54783559
C       2.96363931      1.12549048     -0.34896508
C       3.41498768     -0.19506360     -0.28786803
C       2.51525597     -1.25468479     -0.12695930
C       1.16653225     -0.91702805     -0.03321944
O       0.14490277     -1.80166837      0.12510715
C      -1.00611547     -1.07753657      0.17172086
C      -2.28491417     -1.60930667      0.32582980
C      -3.34345441     -0.69435704      0.34963354
C      -3.10859986      0.67689183      0.22380994
Cl     -4.44110984      1.76851092      0.25837152
C      -1.81269212      1.18687567      0.06985332
C      -0.73477355      0.28129403      0.04361678
C       0.68111395      0.38589555     -0.08993984
C       1.60149228      1.43910529     -0.25219825
H       4.47845365     -0.41113194     -0.36561544
H       2.84345637     -2.28611928     -0.07708637
H      -2.44430518     -2.67676325      0.42169850
H      -4.35980725     -1.06407537      0.46806361
H      -1.64253810      2.25455588     -0.02698807
H       1.26262310      2.46918052     -0.30102960
