29
CC(=O)NC(CSc1c(Cl)cccc1Cl)C(=O)O
C      -3.70424606     -0.32372681     -1.56596653
C      -2.49997102     -1.12911863     -1.16210861
O      -1.77545531     -1.68376062     -1.98252964
N      -2.27878832     -1.18857617      0.18912986
C      -1.09197024     -1.84344846      0.74532586
C       0.19546023     -1.04000819      0.51513573
S       0.12668310      0.64535022      1.24446993
C       1.50234219      1.38502842      0.34748384
C       1.28208303      2.10376149     -0.84529111
Cl     -0.29666409      2.31473170     -1.53212139
C       2.34974364      2.68345887     -1.54266441
C       3.65125632      2.56182242     -1.06434355
C       3.88835993      1.86006801      0.11427585
C       2.82625875      1.27674426      0.81751144
Cl      3.23603582      0.42635942      2.27171679
C      -1.31723846     -2.12678008      2.22703364
O      -2.26222881     -1.74395131      2.90194483
O      -0.35512380     -2.89537642      2.77631271
H      -3.37441243      0.55359619     -2.12855457
H      -4.35361799     -0.94215491     -2.19148752
H      -4.27832058      0.01108861     -0.69766647
H      -2.82543272     -0.61338202      0.82248934
H      -1.00356798     -2.81527482      0.24335265
H       0.37692438     -0.94260884     -0.56056219
H       1.05593722     -1.56204490      0.94658211
H       2.16868164      3.23335483     -2.46403478
H       4.47787040      3.01359138     -1.60791360
H       4.90734431      1.76979055      0.48519843
H      -0.62794316     -2.98853418      3.71418630
