59
CC(NC(=O)C1c2ccccc2C(=O)N1CCc1ccccn1)c1ccc(OCC(F)(F)F)cc1
C      -1.96822722     -3.92541527     -0.66137700
C      -1.90310343     -2.41479071     -0.88992330
N      -0.61940260     -2.04330362     -1.45909381
C      -0.50829474     -0.99403057     -2.35301601
O      -1.45046790     -0.57322442     -3.02126267
C       0.92411403     -0.45579771     -2.52991014
C       1.70556264     -1.22507926     -3.55445251
C       1.43371408     -1.44651436     -4.89435159
C       2.34661280     -2.20186455     -5.63907676
C       3.51199188     -2.71974924     -5.04532134
C       3.78304916     -2.49039130     -3.69530400
C       2.86415908     -1.74605175     -2.97942053
C       2.89987904     -1.34857935     -1.56656968
O       3.80196089     -1.59764457     -0.79528953
N       1.73902696     -0.63682360     -1.32066096
C       1.49173443      0.11851200     -0.09505181
C       2.18501026      1.48179115     -0.09028326
C       1.69646766      2.33683876      1.05139443
C       1.36380851      3.67415492      0.84324963
C       0.91407814      4.43566195      1.91952200
C       0.82311203      3.85216305      3.17291973
C       1.18697526      2.52141739      3.29984111
N       1.62097277      1.75835589      2.27207749
C      -2.12029224     -1.58868682      0.36983576
C      -2.86757652     -0.40036995      0.29883097
C      -3.00819001      0.43435413      1.41457589
C      -2.39361454      0.10026315      2.61848114
O      -2.44233353      0.82740150      3.77467387
C      -2.93099890      2.16730304      3.67351010
C      -2.73996232      2.90042715      4.99064297
F      -3.42445755      2.31705359      6.00031563
F      -3.18759137      4.17566336      4.88740401
F      -1.43784243      2.96410529      5.34814182
C      -1.65547632     -1.08119943      2.70141395
C      -1.51229911     -1.91514403      1.58964758
H      -1.15480150     -4.28881051     -0.02200902
H      -1.88275672     -4.45991783     -1.61635578
H      -2.91988419     -4.20990051     -0.19840571
H      -2.69364284     -2.16825079     -1.60927928
H       0.19756030     -2.19840953     -0.87672489
H       0.89889049      0.61161170     -2.77016693
H       0.53533731     -1.05086826     -5.35975442
H       2.15572252     -2.39129474     -6.69414478
H       4.20859347     -3.30224689     -5.64511721
H       4.67970789     -2.87744311     -3.22371211
H       0.40753512      0.23203704      0.02213375
H       1.85232628     -0.48503467      0.74704918
H       1.99371774      1.99305490     -1.04346803
H       3.27173740      1.35963444     -0.01334000
H       1.45064711      4.12278277     -0.13842381
H       0.64362225      5.47883821      1.78055754
H       0.48152064      4.41655709      4.03426056
H       1.13778032      2.01821190      4.26205867
H      -3.33329807     -0.10567024     -0.64124784
H      -3.60260827      1.33624042      1.30309960
H      -2.38485397      2.70774260      2.89131329
H      -3.99948215      2.15204898      3.43363465
H      -1.16719942     -1.34490384      3.63608112
H      -0.89827057     -2.80681496      1.69053681
