36
CCCN(CCCl)c1c([N+](=O)[O-])cc(C(F)(F)F)cc1[N+](=O)[O-]
C      -3.40529299     -0.27969504     -1.12424184
C      -3.22973518      0.01407894      0.35777413
C      -1.82615133     -0.30887183      0.87405205
N      -0.78375450      0.52950285      0.23283935
C      -0.72464236      1.95165709      0.67579955
C      -1.29582555      2.88979313     -0.39055059
Cl     -1.30865206      4.57107694      0.20080652
C       0.47682048     -0.10149167      0.15027639
C       1.30250553     -0.44534552      1.24008288
N       0.89473156     -0.16913423      2.60071803
O       0.37494319     -1.10241773      3.22541987
O       1.13270737      0.96133221      3.04231193
C       2.55081839     -1.08737360      1.09620980
C       3.02899421     -1.42765752     -0.17604333
C       4.37455859     -2.09616170     -0.34570454
F       5.38042924     -1.19052974     -0.46413268
F       4.70101780     -2.89378600      0.70605246
F       4.43681096     -2.88376257     -1.45209183
C       2.24193137     -1.10398792     -1.28715472
C       1.00093964     -0.46201129     -1.10755577
N       0.23852757     -0.18957698     -2.30789774
O      -0.40483762     -1.13364274     -2.78511298
O       0.34668861      0.94246095     -2.79701544
H      -4.44426285     -0.10488700     -1.42136433
H      -3.16018358     -1.32236032     -1.34960787
H      -2.77107008      0.36564818     -1.73838056
H      -3.95069883     -0.59376183      0.91789279
H      -3.48537131      1.05955515      0.55863159
H      -1.62910763     -1.37300353      0.68642770
H      -1.81450329     -0.16470090      1.96042045
H       0.30976976      2.26060559      0.87483414
H      -1.27601172      2.07273076      1.61672125
H      -2.32204926      2.62942808     -0.65850365
H      -0.69058075      2.86700838     -1.29991021
H       3.14497811     -1.32676227      1.98024346
H       2.58555851     -1.35395628     -2.29224625
