41
OCC(O)C(O)c1nn(-c2ccccc2)c2nc3ccccc3nc12
O       1.78437399      3.95300270      2.59172337
C       1.65410478      3.11405184      1.44110134
C       0.45712210      3.58154845      0.61244979
O       0.65182484      4.99050040      0.33668153
C       0.28496274      2.82354494     -0.71711669
O      -0.73917399      3.53463465     -1.45885481
C      -0.09031580      1.38568753     -0.54523110
N      -1.38177199      1.02011744     -0.55141347
N      -1.35891977     -0.34816101     -0.39456037
C      -2.59079517     -1.07022212     -0.35024569
C      -2.62793178     -2.46222660     -0.19913208
C      -3.85392830     -3.13495281     -0.15995009
C      -5.04910874     -2.42822417     -0.27054373
C      -5.02434804     -1.04467613     -0.42079353
C      -3.80328746     -0.36681788     -0.46075100
C      -0.05340241     -0.82490091     -0.30007220
N       0.39808104     -2.09135728     -0.14129323
C       1.73864877     -2.17768239     -0.08724717
C       2.31125704     -3.43233499      0.07615057
C       3.69495981     -3.60174581      0.14252620
C       4.52517788     -2.49436711      0.04366196
C       3.96461655     -1.22718433     -0.12114757
C       2.58948359     -1.04389034     -0.18921145
N       2.11889351      0.20435228     -0.34820750
C       0.76803868      0.28569410     -0.40083556
H       1.64762868      4.86209827      2.25361328
H       2.58556806      3.19755951      0.87203033
H       1.53740037      2.08553913      1.79026214
H      -0.45859310      3.52772985      1.21376634
H       0.02618695      5.18854402     -0.39237677
H       1.19652279      2.91188453     -1.31911455
H      -1.53207353      2.96110050     -1.39557830
H      -1.72826962     -3.06227837     -0.10861418
H      -3.87307481     -4.21593451     -0.04220704
H      -5.99890356     -2.95593694     -0.23911779
H      -5.95547310     -0.49001762     -0.50667835
H      -3.82000035      0.71494870     -0.57790624
H       1.66359749     -4.30277805      0.15494678
H       4.11725193     -4.59538103      0.27174853
H       5.60513988     -2.61044964      0.09479431
H       4.61853006     -0.36101880     -0.19725600
