47
CCCCOC(=O)C1C(C(=O)OCCCC)C2(Cl)C(Cl)=C(Cl)C1(Cl)C2(Cl)Cl
C       3.85139203      2.86123272      1.65974523
C       2.82339803      2.28906618      0.69637771
C       3.49534863      1.57633823     -0.47946196
C       2.47879601      1.03033134     -1.47968043
O       1.58858869      0.09407032     -0.84909654
C       2.02538170     -1.19560098     -0.78023151
O       3.08763631     -1.59655448     -1.21996919
C       1.00217798     -2.02289218     -0.03357559
C      -0.41265142     -1.86129508     -0.71190383
C      -1.35126881     -1.04781057      0.14450806
O      -1.19605025     -0.85692940      1.34067397
O      -2.37570096     -0.57262713     -0.60731752
C      -3.35714128      0.21372052      0.08930340
C      -2.91198494      1.67200634      0.14117786
C      -3.95089427      2.55183164      0.83050696
C      -3.50551427      4.00458029      0.87988697
C      -0.88318649     -3.33337537     -0.89217649
Cl     -2.23242981     -3.53897122     -2.00000136
C      -1.04592388     -3.94185295      0.48384370
Cl     -2.53539265     -4.25391416      1.22446104
C       0.18026220     -4.07493145      1.00208670
Cl      0.58956943     -4.58206395      2.56616139
C       1.18248209     -3.57399319     -0.03780369
Cl      2.80701398     -4.20578500      0.18617134
C       0.43958379     -4.03983004     -1.32885971
Cl      1.11247244     -3.43978226     -2.88004615
Cl      0.30023948     -5.83540720     -1.51449682
H       4.49647168      3.58969547      1.15823026
H       4.48368155      2.06952424      2.07416750
H       3.35097497      3.36677800      2.49156662
H       2.17505890      1.59304342      1.24087788
H       2.18808806      3.10128967      0.32450285
H       4.16773633      2.26957134     -0.99802706
H       4.10772344      0.75428402     -0.09059860
H       2.98001602      0.57291976     -2.34081896
H       1.86011722      1.84548761     -1.87055414
H       1.03669009     -1.65231875      0.99991823
H      -0.32087883     -1.34908670     -1.67885582
H      -4.29185242      0.12473535     -0.47483460
H      -3.54632013     -0.19219182      1.09028122
H      -1.95002593      1.74797003      0.66248183
H      -2.72740894      2.02975430     -0.87950260
H      -4.12306551      2.19356091      1.85210847
H      -4.90685130      2.48661030      0.29804605
H      -4.26401700      4.61690504      1.37751222
H      -2.56741476      4.10869305      1.43443083
H      -3.35492723      4.40321379     -0.12846151
