32
O=C1c2cccc(S(=O)(=O)O)c2C(=O)c2c1cccc2S(=O)(=O)O
O       0.06440202     -3.54034857      0.65623455
C       0.02607535     -2.33939885      0.42488278
C      -1.26581285     -1.61920462      0.38350312
C      -2.46101579     -2.34860027      0.40023817
C      -3.68242757     -1.68622429      0.28860961
C      -3.71003475     -0.30099071      0.12590622
C      -2.51299536      0.43174603      0.11621537
S      -2.59405224      2.14914772     -0.34792945
O      -2.29951353      2.95258802      0.81514952
O      -3.82613959      2.32435015     -1.08817543
O      -1.39170399      2.32339235     -1.41079623
C      -1.28765504     -0.22544201      0.28452162
C      -0.00648749      0.48028404      0.45068643
O       0.02825184      1.58910050      0.96652940
C       1.25465628     -0.19294729      0.09961461
C       1.26797702     -1.58980589      0.13074471
C       2.45396102     -2.29203954     -0.11566674
C       3.62777948     -1.59811987     -0.40748343
C       3.62156061     -0.20354682     -0.45395575
C       2.43805865      0.50243149     -0.19401348
S       2.46572766      2.28079547     -0.31292523
O       1.31698077      2.67766848     -1.10497594
O       3.80501826      2.67662526     -0.68859069
O       2.21011267      2.78058020      1.19998964
H      -2.44411854     -3.43444009      0.48891693
H      -4.61194981     -2.25310413      0.29296115
H      -4.66863003      0.19737192     -0.01960091
H      -0.62583916      2.79964684     -1.00358563
H       2.46687145     -3.38124822     -0.08415622
H       4.54868572     -2.14544852     -0.60295662
H       4.54673863      0.32152064     -0.69173677
H       1.24551831      2.66366060      1.40184469
