55
C[C@]12C[C@H](O)[C@@]3(F)[C@@H](CCC4=CC(=O)C=C[C@@]43C)[C@@H]1C[C@@H](O)[C@]2(O)C(=O)CO
C      -1.89330365      1.51402058     -0.32506419
C      -1.61070011      0.10350771      0.25668653
C      -0.92099811      0.21374646      1.63338712
C       0.51986312      0.77089672      1.55307267
O       0.46760955      2.17526533      1.32738963
C       1.41090755      0.02544912      0.50805771
F       1.53770674     -1.26013886      1.01605670
C       0.69089984     -0.13938495     -0.87420131
C       1.52250494     -1.01533169     -1.82966583
C       2.94350275     -0.49097863     -2.00627285
C       3.61606630     -0.32136503     -0.66809689
C       4.75844985     -0.97659530     -0.39435340
C       5.41515138     -0.88427310      0.92513309
O       6.46713539     -1.46665914      1.15631909
C       4.75291924     -0.06031814      1.95320162
C       3.61564237      0.59522178      1.68581128
C       2.88493018      0.58206014      0.34309138
C       2.95093183      2.03231475     -0.18944304
C      -0.69594396     -0.76022691     -0.64445018
C      -1.57106260     -1.08994502     -1.85624874
C      -3.00959330     -1.14912465     -1.29419965
O      -3.55409320     -2.45582263     -1.44048873
C      -2.90824664     -0.75876476      0.20603943
O      -2.72049143     -1.98702790      0.95153959
C      -4.13782709     -0.08401317      0.82560778
O      -4.24809607     -0.02900089      2.05919870
C      -5.22935966      0.47858712     -0.07252022
O      -6.15661637      1.25927138      0.66921521
H      -2.45663358      1.47891192     -1.26224985
H      -0.98644779      2.07870317     -0.54770622
H      -2.47926273      2.11194972      0.38220750
H      -1.52696293      0.84385714      2.29585585
H      -0.86276217     -0.77480620      2.10468274
H       0.96112067      0.62926900      2.54660307
H      -0.00796614      2.57842217      2.07657356
H       0.57468760      0.84034496     -1.34833177
H       1.55970979     -2.04641975     -1.45387690
H       1.04160795     -1.05734308     -2.81406816
H       3.50000724     -1.18587021     -2.64704183
H       2.92765896      0.46780393     -2.53720813
H       5.25397613     -1.62079000     -1.11175813
H       5.24222078     -0.01077865      2.91822043
H       3.19032831      1.20816387      2.47738257
H       2.68231174      2.77001046      0.57414497
H       2.29410499      2.19713934     -1.04852291
H       3.96902352      2.28825454     -0.51210577
H      -0.51730749     -1.72414944     -0.14109689
H      -1.49619763     -0.29391694     -2.60617038
H      -1.26953661     -2.02959903     -2.33063775
H      -3.63407068     -0.47227201     -1.88237769
H      -3.20228800     -2.97081869     -0.68213283
H      -2.87818325     -1.76517855      1.89324003
H      -5.76829993     -0.34726530     -0.54374775
H      -4.79555935      1.12995792     -0.83276718
H      -6.21316827      0.85504938      1.55808693
