59
CC1(C)CN=C(NN=C(/C=C/c2ccc(C(F)(F)F)cc2)/C=C/c2ccc(C(F)(F)F)cc2)NC1
C       6.89018718      0.62378646     -0.81638420
C       5.51016958      0.47740647     -0.15300708
C       5.60890724      1.01032656      1.29027520
C       5.09335584     -1.00579299     -0.15546797
N       3.68237347     -1.24915390      0.18057398
C       2.85011645     -0.28638144     -0.02109936
N       1.51174568     -0.45477387      0.20982558
N       0.54175720      0.48848692      0.01729912
C      -0.69486666      0.14092216      0.20349598
C      -1.80188843      1.14101755      0.10395832
C      -1.53710055      2.45511616      0.04091606
C      -2.56798855      3.49496723     -0.07540311
C      -2.29742855      4.62823208     -0.85165854
C      -3.24063690      5.65375329     -0.97096534
C      -4.47046741      5.57336699     -0.30213563
C      -5.48736760      6.67856807     -0.45060021
F      -4.94539964      7.91777121     -0.28699001
F      -6.06934942      6.68451826     -1.68167615
F      -6.51081041      6.59971282      0.44563746
C      -4.73609455      4.44411884      0.48483357
C      -3.79076397      3.41938461      0.60262394
C      -1.22083986     -1.21532966      0.53481333
C      -0.99020487     -2.23762751     -0.30277261
C      -1.49618730     -3.59941951     -0.09086488
C      -1.57096019     -4.18256382      1.18001858
C      -2.03330861     -5.49365073      1.33628136
C      -2.41429330     -6.25441043      0.22197936
C      -2.93564233     -7.66082745      0.38930131
F      -4.29287380     -7.69892143      0.49194310
F      -2.61632145     -8.47620740     -0.65418912
F      -2.45877404     -8.28126816      1.50450453
C      -2.33138317     -5.67227317     -1.05063194
C      -1.86808104     -4.36181164     -1.20469953
N       3.16364057      0.96185219     -0.45580814
C       4.47053714      1.26412206     -0.96385069
H       7.65179829      0.05195219     -0.27450315
H       7.20865619      1.67218550     -0.83705796
H       6.87575254      0.26114783     -1.85048422
H       6.37212198      0.46525470      1.85742308
H       5.88504231      2.07090594      1.29782442
H       4.66507726      0.91127331      1.83613057
H       5.71372127     -1.56661001      0.55388853
H       5.27687931     -1.45018184     -1.14193480
H       1.29342340     -1.36875623      0.59534694
H      -2.81570782      0.75808191      0.07029200
H      -0.50809531      2.81012853      0.05295183
H      -1.35044314      4.71954401     -1.38054461
H      -3.00962537      6.52044142     -1.58902522
H      -5.68152232      4.35717279      1.01902096
H      -4.02077826      2.56940587      1.24082939
H      -1.83140228     -1.29901843      1.42623927
H      -0.41850013     -2.07800048     -1.21649442
H      -1.25903569     -3.63256865      2.06505111
H      -2.08581191     -5.92289818      2.33618448
H      -2.62385382     -6.24030323     -1.93300136
H      -1.80791630     -3.94048255     -2.20669765
H       2.35910184      1.47175422     -0.80484695
H       4.51446225      0.99009203     -2.02476962
H       4.65289796      2.34246255     -0.89785800
