24
CCCOCCC(=O)OC
C      -4.03939621     -0.46377736     -1.34283242
C      -2.66753100     -0.77161175     -0.76809416
C      -2.32877127      0.14562435      0.40342228
O      -1.09130662     -0.22644311      1.01089818
C       0.05133344      0.28431442      0.32135011
C       1.29429382     -0.14140227      1.08438745
C       2.53870832      0.36929193      0.41293403
O       2.56700550      1.04224170     -0.60798468
O       3.63536408     -0.03183257      1.11639141
C       4.87629016      0.40365832      0.55931779
H      -4.82059975     -0.59823702     -0.58789655
H      -4.08851847      0.56661491     -1.70915282
H      -4.25858379     -1.13313310     -2.18057943
H      -2.62706858     -1.81674362     -0.43904469
H      -1.91559226     -0.67382670     -1.55838127
H      -2.30802517      1.19909566      0.10040145
H      -3.09908855      0.04545005      1.17595499
H       0.08162006     -0.11021446     -0.69984012
H      -0.00972580      1.37804960      0.27258192
H       1.33808198     -1.23485810      1.13952158
H       1.25227710      0.24776683      2.10778882
H       4.92612006      1.49688916      0.54247520
H       5.68310094      0.03010406      1.19590405
H       5.01001199     -0.00702094     -0.44635727
