23
O=C(O)C1CCNCC1C(=O)O
O      -2.56135196     -0.38616785      1.17361468
C      -1.99768079     -0.71727390      0.14439940
O      -2.63348110     -1.48639084     -0.76188635
C      -0.59603993     -0.35624639     -0.28774187
C       0.27521772     -1.61755748     -0.27717159
C       1.73500955     -1.28846628     -0.56309689
N       2.24198230     -0.30978134      0.39392019
C       1.47884122      0.94006964      0.34170922
C      -0.00588648      0.71949361      0.64306719
C      -0.69493168      2.06273987      0.54101908
O      -0.48551279      3.02216874      1.26734665
O      -1.56517386      2.17959376     -0.47748121
H      -3.51868238     -1.63349720     -0.36709131
H      -0.65238454      0.03418262     -1.31265307
H       0.19329017     -2.12198988      0.69531091
H      -0.08684630     -2.33369559     -1.02501773
H       2.33195917     -2.20367759     -0.48572132
H       1.85052452     -0.91509251     -1.58785592
H       3.22374047     -0.11474781      0.19360556
H       1.90532853      1.63246998      1.07758564
H       1.60962151      1.41606992     -0.63923237
H      -0.12199332      0.39140764      1.68563576
H      -1.92555005      3.08638890     -0.37226463
