28
Nc1ccc(OCc2cccc(F)c2)c(Cl)c1
N      -5.55358313     -0.21682546      0.03955362
C      -4.17092475     -0.01838503      0.10246222
C      -3.38613303     -0.17214595     -1.04158567
C      -1.98858562     -0.09633730     -0.97647761
C      -1.34846373      0.09301731      0.25016548
O       0.00733808      0.18891413      0.41611581
C       0.83858277     -0.05367150     -0.71718176
C       2.29165371     -0.00682609     -0.30151063
C       2.71675360     -0.55351949      0.92112324
C       4.06720982     -0.53807230      1.28191349
C       5.01077737      0.01418375      0.41898100
C       4.59601404      0.54331981     -0.79669994
F       5.50316749      1.06792985     -1.63133931
C       3.25391240      0.53404243     -1.16592005
C      -2.13625022      0.19031891      1.40718631
Cl     -1.41735648      0.38829123      2.96961489
C      -3.53167599      0.11257215      1.33469433
H      -6.06999522      0.19548057      0.81104688
H      -5.96746768      0.00461850     -0.86083702
H      -3.85833416     -0.35201845     -2.00477446
H      -1.43701419     -0.19760012     -1.90513100
H       0.65303103      0.72046596     -1.47154437
H       0.63900810     -1.04671180     -1.13830328
H       1.99055328     -0.98953969      1.60626269
H       4.37848486     -0.95648369      2.23570247
H       6.06255374      0.03409111      0.68449947
H       2.97494639      0.95411190     -2.12763479
H      -4.11820251      0.15677925      2.24821257
