26
CC(C)Oc1ccc([N+](=O)[O-])cc1N
C      -2.65601838     -1.28150106      0.70859399
C      -2.05751405      0.06162701      0.30321785
C      -3.15365683      1.02611449     -0.13580008
O      -1.18947542     -0.16134635     -0.82105233
C       0.12668075      0.10939004     -0.53533627
C       0.54380465      1.41773515     -0.27659691
C       1.88875606      1.67351257     -0.01116938
C       2.80320236      0.61091226     -0.01065801
N       4.21510160      0.87045771      0.29428907
O       5.01106872     -0.07422012      0.19563083
O       4.52943550      2.02131572      0.63037039
C       2.38695462     -0.69831392     -0.29514362
C       1.05019206     -0.94854333     -0.61240263
N       0.60660014     -2.27117900     -0.78560300
H      -1.86700418     -1.97120313      1.02643137
H      -3.36732176     -1.16731181      1.53229462
H      -3.16786218     -1.75591961     -0.13600942
H      -1.53036914      0.48552381      1.16840345
H      -3.86696025      1.21155657      0.67305770
H      -3.69861551      0.63448362     -1.00194832
H      -2.72149552      1.98389377     -0.44402479
H      -0.17183584      2.23481894     -0.28340079
H       2.20464399      2.69370723      0.19676873
H       3.09381926     -1.52435862     -0.27120677
H      -0.29871736     -2.29460253     -1.25449275
H       1.28658674     -2.88654937     -1.21993136
