45
C[C@H]1[C@H](NC(=O)/C(=N\OC(C)(C)C(=O)O)c2csc(N)n2)C(=O)N1S(=O)(=O)O
C       3.76293924      0.94152554     -0.68984650
C       2.91308945     -0.25614111     -0.31610675
C       1.89651299     -0.74449078     -1.38774323
N       0.50145591     -0.89340669     -0.88557878
C      -0.25001030      0.20945512     -0.53184451
O       0.02617653      1.36271543     -0.84471830
C      -1.47876203     -0.09418511      0.34519023
N      -2.63387260      0.47889520      0.14754405
O      -2.57749848      1.31772049     -0.97609617
C      -3.41648189      2.47486594     -0.84188492
C      -4.84896896      2.09032105     -1.20168235
C      -3.32501757      3.12721867      0.54048657
C      -2.86470342      3.48366546     -1.85885297
O      -3.53415756      4.35319472     -2.40221160
O      -1.52942758      3.37274165     -2.08514391
C      -1.34141470     -1.03115800      1.45567331
C      -2.33125309     -1.38486564      2.35259654
S      -1.71979860     -2.52043293      3.48333953
C      -0.18539433     -2.45321871      2.71904378
N       0.86368073     -3.15206920      3.16956178
N      -0.12327092     -1.67491576      1.66773585
C       2.73812387     -2.07382357     -1.35385717
O       2.64959586     -3.19658324     -1.79357654
N       3.67003014     -1.52764101     -0.46355718
S       4.31362914     -2.43314380      0.76597187
O       5.27524470     -1.60789732      1.45964795
O       3.23218334     -3.07973414      1.47583254
O       5.18460573     -3.56061607      0.02958850
H       3.15151785      1.84922411     -0.71785645
H       4.22957978      0.82026280     -1.67338926
H       4.55839517      1.09857586      0.04600747
H       2.48623673     -0.15430734      0.69020934
H       1.93541631     -0.23814417     -2.35763089
H       0.27133876     -1.75349786     -0.38138164
H      -4.89556825      1.66424511     -2.21064144
H      -5.23480657      1.32575066     -0.51850948
H      -5.52203148      2.95354928     -1.16727752
H      -2.28020687      3.30568657      0.82020977
H      -3.75975947      2.48851336      1.31710170
H      -3.85045413      4.08832788      0.56437224
H      -1.10569600      2.62841476     -1.59063875
H      -3.35547572     -1.04068901      2.39806216
H       0.70009521     -3.97465726      3.73621998
H       1.67498918     -3.24086953      2.55024193
H       6.12919388     -3.34838143      0.17604432
