41
CCCCCCCCOC(=O)C(C)OC(C)=O
C       5.90627563      1.86543449      1.13478770
C       4.57626830      1.35354923      0.60286138
C       4.65446517     -0.13037944      0.24197740
C       3.37206295     -0.66770390     -0.40166946
C       2.16838924     -0.65144830      0.54414859
C       0.94845773     -1.39245086     -0.01380012
C       0.35533425     -0.73086922     -1.26202682
C      -0.90426093     -1.44622408     -1.75000271
O      -1.92903376     -1.43758687     -0.74495276
C      -2.71408766     -0.32130006     -0.70771640
O      -2.59022490      0.65132175     -1.44195680
C      -3.75857969     -0.45295843      0.40444727
C      -3.07653930     -0.31191842      1.75888281
O      -4.75375295      0.57824550      0.32477048
C      -5.62620478      0.43235444     -0.71012006
C      -6.55725948      1.60357433     -0.76871894
O      -5.66064932     -0.52200179     -1.47377963
H       6.20435830      1.31971458      2.03572723
H       5.82886121      2.92688582      1.39030167
H       6.69771679      1.75335731      0.38686152
H       3.80732297      1.52028528      1.36468204
H       4.29378968      1.93787626     -0.28038497
H       5.48100474     -0.28486803     -0.46285870
H       4.89075511     -0.71784673      1.13759296
H       3.55922382     -1.69833450     -0.72729980
H       3.15297946     -0.08399627     -1.30287595
H       2.45081758     -1.12515886      1.49239784
H       1.88399129      0.38103741      0.77676887
H       1.22029238     -2.43067289     -0.23977870
H       0.18831660     -1.43052819      0.77575630
H       1.08902993     -0.73168369     -2.07492544
H       0.11986023      0.31413367     -1.02993904
H      -1.27071984     -1.00231629     -2.68329508
H      -0.67842947     -2.49576752     -1.96828129
H      -4.24181128     -1.43559860      0.33776911
H      -2.57905586      0.66086275      1.84615044
H      -2.32562396     -1.09242687      1.91617096
H      -3.81315222     -0.36700228      2.56752734
H      -7.16065587      1.64299805      0.14147175
H      -5.98474356      2.52639892     -0.89187259
H      -7.22478853      1.49301228     -1.62805759
