35
CC1(C)C(C=C(Cl)Cl)C1C(=O)OCc1c(F)c(F)cc(F)c1F
C      -2.79744464      1.56910418     -1.29240447
C      -2.89497100      0.68128614     -0.07331609
C      -4.27710617      0.66094964      0.53458343
C      -2.00477384     -0.55201893     -0.04658063
C      -2.49739661     -1.82782492      0.49925104
C      -1.80741772     -2.74568390      1.19735511
Cl     -0.13767824     -2.54324929      1.59350263
Cl     -2.58365164     -4.19680308      1.72848649
C      -1.72160334      0.60427267      0.89464729
C      -0.51324866      1.44154917      0.71194724
O      -0.55598775      2.66120983      0.73115474
O       0.59673965      0.68120861      0.54914892
C       1.78900321      1.44025745      0.34576779
C       2.89522961      0.46464820      0.08952311
C       3.79444029      0.10597956      1.09671177
F       3.69687574      0.67256536      2.30851179
C       4.79742114     -0.83461848      0.86004783
F       5.65115025     -1.16419510      1.84038820
C       4.92453767     -1.44135139     -0.38345040
C       4.02935930     -1.09638431     -1.38749013
F       4.13483950     -1.68149240     -2.58892501
C       3.02414006     -0.15669759     -1.15550226
F       2.16580068      0.14900028     -2.14238324
H      -2.98505950      2.61359749     -1.01905554
H      -1.81328468      1.51652592     -1.76785371
H      -3.53870369      1.27092438     -2.03907539
H      -4.31230787      0.10499735      1.47915671
H      -4.99105304      0.19967596     -0.15829265
H      -4.61228490      1.68310433      0.74418344
H      -1.33234953     -0.68479510     -0.89297701
H      -3.54015114     -2.05552713      0.27484606
H      -1.96805935      0.47341810      1.94498523
H       1.67858775      2.10969751     -0.51621339
H       2.00107563      2.04774447      1.23378773
H       5.70533288     -2.17107498     -0.56654874
