15
CC1=CC(=O)CC(=O)O1
C       2.38151433     -0.19140292     -0.12990299
C       0.89329572     -0.05671666     -0.04660482
C       0.27783436      1.11146201      0.14432892
C      -1.18476492      1.13631008      0.21106807
O      -1.75178616      2.21326675      0.38707543
C      -1.94292611     -0.13804880      0.06459438
C      -1.14548985     -1.38087807     -0.14470537
O      -1.69588230     -2.47276832     -0.27449175
O       0.20827568     -1.27730029     -0.18867523
H       2.88886334      0.77220782     -0.01629885
H       2.66874214     -0.61169796     -1.09900926
H       2.74472132     -0.85885196      0.65807372
H       0.79897931      2.05439262      0.25443013
H      -2.53231096     -0.27483552      0.97762981
H      -2.60906591     -0.02513879     -0.79751218
