52
COC(=O)c1cc(N=NC(C(C)=O)C(=O)Nc2ccc3[nH]c(=O)[nH]c3c2)cc(C(=O)OC)c1
C      -3.69682188      1.18915391     -4.84670040
O      -3.77939421      0.89624173     -3.45089283
C      -2.66673822      0.31920114     -2.93994217
O      -1.64807822      0.04248760     -3.55402266
C      -2.83079710      0.05135066     -1.48651086
C      -1.79907694     -0.63251448     -0.83131939
C      -1.87082633     -0.89158651      0.53971492
N      -0.81841513     -1.58075418      1.16687619
N      -0.14590598     -0.78854801      1.86247299
C       0.99494994     -1.44507516      2.54143574
C       0.90127526     -1.06075117      4.00410831
C       1.19053250      0.36897610      4.39290316
O       0.53792872     -1.87863484      4.85537184
C       2.29159094     -1.01125732      1.86458452
O       3.33589363     -0.89036930      2.49845876
N       2.15781830     -0.83185135      0.49492158
C       3.14623117     -0.45946381     -0.43796939
C       2.71489211     -0.28260952     -1.78085155
C       3.60261329      0.09055485     -2.79917292
C       4.91186259      0.27379243     -2.43331995
N       6.00920954      0.64070115     -3.20288069
C       7.13992137      0.70020484     -2.37497954
O       8.27305374      0.99036526     -2.71320994
N       6.71016486      0.35943070     -1.08406345
C       5.34377790      0.10041761     -1.12126216
C       4.49168878     -0.26429003     -0.10290763
C      -3.00266132     -0.48765752      1.25640469
C      -4.04510068      0.19342516      0.61296937
C      -5.26153318      0.65145910      1.33765285
O      -6.18824683      1.22691799      0.79096187
O      -5.17899370      0.34329578      2.65442642
C      -6.31396333      0.75329695      3.41998419
C      -3.95433354      0.46403144     -0.76070797
H      -3.56554860      0.26842088     -5.42388018
H      -2.87955285      1.89018555     -5.04349785
H      -4.63638140      1.65853497     -5.15041380
H      -0.92896650     -0.96621607     -1.39307639
H       0.94013343     -2.53952914      2.46932406
H       0.91250338      0.52105035      5.44029049
H       0.59348161      1.05116720      3.78160131
H       2.25351071      0.59002803      4.28241218
H       1.21604600     -0.94776088      0.13409370
H       1.67006849     -0.43202551     -2.04774354
H       3.26432839      0.22718360     -3.81939042
H       6.02791699      0.83687672     -4.18976655
H       7.31569170      0.32238573     -0.28024368
H       4.87644798     -0.39080333      0.90015382
H      -3.05429169     -0.71052890      2.32014972
H      -6.14846804      0.45219782      4.45825951
H      -6.42412857      1.84163846      3.38783248
H      -7.22036770      0.25946921      3.05609484
H      -4.76494135      0.99849807     -1.25473359
