29
CCCCCCC(C(=O)O)C(=O)O
C       3.81887036      0.56777680     -0.20365089
C       2.71719469     -0.42372217      0.13831083
C       1.64902842      0.21508119      1.02636997
C       0.56950749     -0.77052758      1.48335995
C      -0.24645418     -1.42861197      0.36584400
C      -0.94482327     -0.46687656     -0.60519450
C      -1.92331446      0.52022959      0.05228715
C      -2.45761601      1.49026065     -0.96611364
O      -3.60902024      1.61113624     -1.34847753
O      -1.49882817      2.30229896     -1.46250272
C      -3.05301687     -0.16062907      0.77695270
O      -3.53244016      0.20473111      1.83981153
O      -3.55461964     -1.24007048      0.14828472
H       4.31856196      0.92734579      0.70151864
H       3.41527582      1.43221852     -0.74053334
H       4.57150445      0.09297443     -0.84086859
H       3.15736951     -1.28837121      0.64819353
H       2.27150322     -0.78644858     -0.79398117
H       1.19011236      1.06321828      0.50557498
H       2.13002005      0.62906663      1.92167911
H      -0.10876455     -0.25185399      2.17114974
H       1.04359449     -1.56433792      2.07458716
H       0.40639893     -2.09118335     -0.21520702
H      -0.99307777     -2.08572676      0.82791142
H      -0.18114978      0.08553012     -1.16628799
H      -1.47404518     -1.06506900     -1.35898247
H      -1.39384716      1.11739847      0.80499326
H      -1.97850449      2.88127398     -2.09280837
H      -4.30941981     -1.51711212      0.70994165
