17
CC(C)(C)C
C       0.80583747     -1.29631465      0.16569517
C      -0.00000008     -0.00000003      0.00000005
C      -1.40152153     -0.33298526     -0.53114890
C       0.71734045      0.92509029     -0.99342408
C      -0.12165642      0.70420973      1.35887792
H       0.90993016     -1.82270261     -0.78975234
H       0.31770506     -1.97861678      0.87067028
H       1.81334953     -1.09057627      0.54436469
H      -2.00202427      0.57451834     -0.66011556
H      -1.93955699     -0.99350890      0.15807237
H      -1.34733249     -0.83759386     -1.50235106
H       0.81943130      0.44892252     -1.97507634
H       0.16473989      1.86103624     -1.13284231
H       1.72285224      1.18104888     -0.64096039
H      -0.63075824      0.06713603      2.09082871
H       0.86488747      0.95517365      1.76452239
H      -0.69322357      1.63516269      1.27263940
