36
CC(=O)O[C@@H]1C[C@H](C)CC[C@H]1C(C)C
C       0.13262452      4.21207563     -0.04006812
C       0.54712610      2.89192289      0.53368224
O       1.22005151      2.76036899      1.54568691
O       0.06372500      1.88120209     -0.23855106
C       0.37552223      0.54222555      0.19478708
C       1.74600070      0.14947053     -0.37257825
C       2.10162668     -1.30347746     -0.04610151
C       3.45240124     -1.67852950     -0.65269999
C       1.00431589     -2.25075162     -0.54124666
C      -0.36893615     -1.86727565      0.01062084
C      -0.73275059     -0.40850874     -0.32109660
C      -2.15407585      0.00874653      0.16600554
C      -3.25337954     -0.81452481     -0.51559518
C      -2.33909731     -0.05049196      1.68468734
H      -0.95792408      4.28066849     -0.06150441
H       0.54582180      4.32532869     -1.04544353
H       0.51998552      5.01852236      0.58914491
H       0.41131467      0.49350269      1.29019723
H       1.75068872      0.31048427     -1.45920852
H       2.51667646      0.82133895      0.02519215
H       2.18201575     -1.40445555      1.04442877
H       3.72104789     -2.70840265     -0.39502479
H       4.24315998     -1.02169468     -0.27521864
H       3.43611773     -1.59583586     -1.74476284
H       1.23734862     -3.27986054     -0.24241034
H       0.96707866     -2.24054405     -1.63820424
H      -1.11047027     -2.55435952     -0.41009974
H      -0.36756047     -2.02128519      1.09598320
H      -0.75240505     -0.31181109     -1.41726764
H      -2.31814759      1.05076333     -0.13874234
H      -3.25500640     -1.85501784     -0.17635404
H      -3.13142693     -0.80610988     -1.60364562
H      -4.24014001     -0.39497194     -0.29027063
H      -1.62749768      0.59835003      2.20280618
H      -3.34339486      0.29091987      1.95990804
H      -2.22243687     -1.06798235      2.06988739
