30
CCCc1ccn(CCC(=O)O)c(=O)c1
C       5.23041924     -0.03222512      0.51376128
C       3.75293204     -0.15853890      0.85223846
C       2.87552924      0.07967177     -0.38021042
C       1.40640686     -0.06588618     -0.07508675
C       0.74706271      1.00557412      0.64351806
C      -0.55674831      0.92552461      0.93514352
N      -1.31031482     -0.17231170      0.55988896
C      -2.73803491     -0.20936346      0.87896600
C      -3.59139955      0.28747286     -0.28227778
C      -5.04342802      0.25711688      0.08799103
O      -5.52175058      0.04368140      1.18864836
O      -5.83998261      0.53396544     -0.96299855
C      -0.76368340     -1.23119606     -0.16450735
O      -1.39659648     -2.20748867     -0.55801082
C       0.68904142     -1.13027988     -0.47133529
H       5.83974953     -0.20546627      1.40630597
H       5.52338890     -0.76509343     -0.24477936
H       5.46134906      0.96795722      0.13347256
H       3.50732344      0.56227134      1.64106924
H       3.56319208     -1.15890277      1.25991226
H       3.16495858     -0.62949191     -1.16701146
H       3.06731078      1.07915511     -0.79163938
H       1.32487059      1.87447616      0.94323801
H      -1.06287637      1.71989324      1.47566822
H      -2.91999873      0.38462414      1.78370145
H      -3.01311523     -1.24269300      1.12667713
H      -3.43970731     -0.34747854     -1.16193668
H      -3.32029068      1.31649797     -0.54212972
H      -6.74923365      0.47820068     -0.60098041
H       1.11362618     -1.95966705     -1.02247686
