60
O=C(c1ccccc1)c1ccc(OCC(O)COc2ccc(C(=O)c3ccccc3)c(O)c2)cc1O
O       6.45507164      1.02038865      2.96731764
C       6.44557603      0.64293676      1.79521355
C       7.71317180      0.19252288      1.17116911
C       7.75779797     -0.91437963      0.31525947
C       8.97775781     -1.32262579     -0.22815900
C      10.15152041     -0.63849215      0.09234742
C      10.11164138      0.45567445      0.95789062
C       8.89541374      0.86835721      1.50274440
C       5.14945939      0.63203943      1.06912604
C       5.08513659      0.80338522     -0.31957119
C       3.84798460      0.77834346     -0.98030496
C       2.66689467      0.58831005     -0.25910107
O       1.40496453      0.53348006     -0.78356326
C       1.28731667      0.54155259     -2.20628594
C      -0.17291269      0.29828040     -2.59146746
O      -0.27057857      0.21087217     -4.02055193
C      -1.09378459      1.41852306     -2.09114172
O      -2.45592990      1.11269352     -2.43178314
C      -3.22839498      0.47862759     -1.49891381
C      -4.59340343      0.43453374     -1.80685210
C      -5.50922225     -0.17343635     -0.93929846
C      -5.06426623     -0.73605335      0.26290073
C      -6.00338293     -1.36410434      1.23219050
O      -5.55922414     -2.20060174      2.01815030
C      -7.43824638     -0.99927463      1.31012871
C      -7.86618908      0.32978222      1.20928777
C      -9.22631017      0.63094429      1.31456136
C     -10.15364585     -0.38764366      1.53507490
C      -9.72641332     -1.71016144      1.65973840
C      -8.36901958     -2.01597037      1.55464797
C      -3.68834493     -0.73057683      0.54094350
O      -3.15354587     -1.30968434      1.66334454
C      -2.77635220     -0.12403552     -0.32626298
C       2.72848338      0.45149797      1.12999221
C       3.95663220      0.48652147      1.78954780
O       3.92108059      0.37117116      3.15434333
H       6.85861611     -1.47621886      0.07827243
H       9.01860607     -2.18637284     -0.88873327
H      11.10215016     -0.96659515     -0.32075273
H      11.02843714      0.98247583      1.21483525
H       8.86922986      1.71226114      2.19049721
H       5.98327033      0.97476024     -0.90878261
H       3.84344390      0.92014309     -2.05754292
H       1.89827357     -0.25456551     -2.64976627
H       1.62335034      1.50354335     -2.61305748
H      -0.50311355     -0.66512069     -2.18672786
H      -1.22075410      0.07832265     -4.21407422
H      -0.85777945      2.34266743     -2.63293561
H      -0.97408515      1.64545943     -1.02644575
H      -4.94904869      0.88561068     -2.73228728
H      -6.55706558     -0.20074437     -1.22676848
H      -7.15516483      1.14105730      1.07085204
H      -9.56123564      1.66365242      1.24064813
H     -11.21062079     -0.14986402      1.62418649
H     -10.44481795     -2.50091211      1.85222478
H      -8.03712340     -3.04606237      1.67096379
H      -3.86509204     -1.83016421      2.09985963
H      -1.72549859     -0.15370515     -0.05334598
H       1.81490803      0.32031914      1.70542246
H       4.81437795      0.60665440      3.49612254
