44
CC(C)CCOCC(O)COCCC(C)C
C       5.30244134      1.56520691     -0.05747205
C       4.20247575      1.09708079      0.90065303
C       2.84979400      1.61914432      0.41796655
C       4.25253813     -0.43929465      1.03110971
C       3.30719313     -1.02073757      2.08593194
O       1.93591360     -0.98003981      1.69643277
C       1.56917484     -2.03657126      0.80907756
C       0.07050646     -1.97094125      0.51328205
O      -0.29676615     -3.06601855     -0.33686696
C      -0.32188924     -0.65314981     -0.16836145
O      -1.71412696     -0.68174531     -0.52397340
C      -2.56428270     -0.24853562      0.53709748
C      -4.01928879     -0.30813793      0.07391048
C      -4.32806860      0.52732295     -1.18430792
C      -4.05968235      2.01783260     -0.97326999
C      -5.78670102      0.31796927     -1.59920794
H       6.28820662      1.23924571      0.29117863
H       5.32008616      2.65810290     -0.12662949
H       5.14858052      1.16409975     -1.06519413
H       4.40812927      1.53890016      1.88390610
H       2.53396489      1.11653688     -0.50219242
H       2.07530727      1.47379937      1.17613491
H       2.89663348      2.69482166      0.21555048
H       5.27415563     -0.72415395      1.31394891
H       4.05860936     -0.89030559      0.05179027
H       3.59248883     -2.05236810      2.32425376
H       3.39811657     -0.44599810      3.01406263
H       2.13523760     -1.96835923     -0.12642308
H       1.80497347     -3.00615984      1.26452761
H      -0.49274227     -2.08401989      1.44556033
H      -1.15916646     -2.81175685     -0.72312466
H       0.22584580     -0.55448544     -1.11204696
H      -0.09582106      0.22364483      0.44786600
H      -2.29516817      0.76876191      0.84021797
H      -2.44104668     -0.90730935      1.40306260
H      -4.26361775     -1.35586498     -0.14495612
H      -4.66823044      0.00640214      0.90052666
H      -3.69540222      0.17900731     -2.01010995
H      -4.61827559      2.40396767     -0.11400555
H      -4.35654393      2.59472633     -1.85593532
H      -2.99589322      2.21048993     -0.80451440
H      -6.01507335      0.87516074     -2.51392283
H      -5.98713070     -0.74055312     -1.79596481
H      -6.47545508      0.65428209     -0.81656714
