23
Clc1cc(Cl)c(Cl)c(Oc2ccc(Cl)c(Cl)c2)c1
Cl     -2.94086358      1.45983093      2.67461929
C      -2.64325998      0.64206423      1.19145746
C      -3.57921353     -0.26685432      0.70379831
C      -3.34527188     -0.92419496     -0.50867145
Cl     -4.55550951     -2.03159310     -1.05609048
C      -2.17006418     -0.67825497     -1.23209012
Cl     -1.85092873     -1.47597269     -2.73623456
C      -1.22750975      0.22337500     -0.71547358
O      -0.08861510      0.50158347     -1.44259503
C       1.11905448      0.29019710     -0.81553729
C       2.10160442      1.26155320     -1.00729966
C       3.36086013      1.10325948     -0.42573877
C       3.64381217     -0.03463188      0.33619625
Cl      5.22013320     -0.16499967      1.03025445
C       2.66321186     -1.01972257      0.50718797
Cl      2.94635017     -2.45760558      1.42316057
C       1.40184584     -0.86091299     -0.07603469
C      -1.47100376      0.89842188      0.48654832
H      -4.49227505     -0.45928472      1.26268616
H       1.88794642      2.14321279     -1.60730437
H       4.11918731      1.86879143     -0.57392327
H       0.65494029     -1.64154415      0.03830106
H      -0.75443122      1.62328210      0.86443579
