21
Brc1cc2oc3cc(Br)c(Br)cc3c2cc1Br
Br     -5.17003614      1.22812099      0.14050448
C      -3.38992072      0.55633644      0.15458505
C      -2.36460362      1.51252008      0.15265812
C      -1.05907275      1.02847014      0.16291834
O       0.06297357      1.79824173      0.16288519
C       1.12842696      0.95195179      0.17462070
C       2.46462334      1.34359269      0.17849354
C       3.42054227      0.31810413      0.19102373
Br      5.24329429      0.86385727      0.19622291
C       3.03261171     -1.03035763      0.19912546
Br      4.28381311     -2.46318590      0.21618776
C       1.67228027     -1.38783299      0.19486995
C       0.70039340     -0.37002755      0.18231915
C      -0.72456289     -0.32018360      0.17469209
C      -1.76527103     -1.26758785      0.17647131
C      -3.09726793     -0.81593253      0.16632268
Br     -4.44563482     -2.15782902      0.16948340
H      -2.56010971      2.57855435      0.14369983
H       2.73422159      2.39335706      0.17202749
H       1.36849829     -2.43086949      0.20110975
H      -1.53519922     -2.32930012      0.18557577
