24
CCC(O)(CC)CC
C      -2.59005745     -0.64230017     -0.28227903
C      -1.21651144     -0.78262954     -0.93000943
C      -0.02114319     -0.45597510     -0.00076136
O      -0.07054272     -1.40450218      1.07606156
C      -0.10541310      0.95712976      0.62026611
C      -0.09555069      2.10647304     -0.37658844
C       1.28703407     -0.70413418     -0.79302362
C       2.57782613     -0.45286433     -0.02122275
H      -3.36466504     -0.98668715     -0.97548684
H      -2.81311215      0.39940648     -0.03483320
H      -2.66715733     -1.24189584      0.62966185
H      -1.18344511     -0.15870811     -1.83082481
H      -1.12765972     -1.82450768     -1.26591779
H       0.59731500     -1.15386370      1.73596234
H      -1.00486200      1.03247396      1.24419226
H       0.71810764      1.09888021      1.33140333
H      -0.15202697      3.06104450      0.15701196
H       0.82174996      2.11564534     -0.97189810
H      -0.95115778      2.05844564     -1.05591360
H       1.30862122     -1.75288076     -1.11806887
H       1.29924252     -0.09287080     -1.70324937
H       2.68432223      0.59994202      0.25459059
H       2.63019932     -1.06000945      0.88695965
H       3.43888659     -0.71561197     -0.64489610
