23
COC(=O)c1ccc(C(=O)O)cc1[N+](=O)[O-]
C      -3.94542004     -0.55086940     -0.89370691
O      -2.54206703     -0.59898899     -0.62747533
C      -1.97141960      0.61805051     -0.47660630
O      -2.50384262      1.70468793     -0.61803182
C      -0.52764299      0.44798668     -0.21974808
C       0.35296360      1.27445382     -0.93192111
C       1.73727209      1.13855487     -0.77020442
C       2.25752038      0.17837683      0.10991494
C       3.71642029      0.00345255      0.31054247
O       4.23268572     -0.78666842      1.07733998
O       4.44943760      0.82423113     -0.45889244
C       1.38656369     -0.63893216      0.83994669
C       0.00212444     -0.48828595      0.67264038
N      -0.86821986     -1.29086674      1.50866773
O      -0.69225599     -2.51558338      1.48930540
O      -1.69111908     -0.68744990      2.20864745
H      -4.13419570     -0.05895232     -1.85291027
H      -4.31439389     -1.57855144     -0.95128058
H      -4.47306952     -0.03773412     -0.08351596
H      -0.03523252      2.02327503     -1.62229425
H       2.40178676      1.78839332     -1.33778979
H       5.37793328      0.60548246     -0.22923461
H       1.78417097     -1.37406232      1.53953043
