56
NCCN(CCN)CCN.NCCNCCNCCN
N      -2.35683555     -2.35148603     -0.07758660
C      -1.31584762     -1.41630625     -0.51147783
C      -0.70580164     -0.65627884      0.68758920
N       0.34119591      0.34241319      0.39154866
C      -0.13656358      1.47244316     -0.43399408
C      -1.28467291      2.28951886      0.19740803
N      -1.60318495      3.47751713     -0.59945305
C       1.55133508     -0.24200389     -0.22741313
C       2.24771032     -1.33171134      0.61650836
N       3.53041952     -1.72987442      0.02903202
N      -4.22819300     -1.10428862      0.11211868
C      -3.42787122     -0.16374468      0.90482051
C      -2.80503912      0.94279785      0.02678912
N      -2.18076455      0.45019157     -1.21135300
C      -0.97142029     -0.35950636     -0.99915448
C       0.23638205      0.41322417     -0.42575977
N       1.42634066     -0.44399828     -0.37469210
C       2.57311604      0.28370573      0.18185571
C       3.82082307     -0.61725145      0.22641986
N       4.97691143      0.09039785      0.77745092
H      -2.74291029     -2.82090311     -0.89637345
H      -3.12838200     -1.83112059      0.33891855
H      -0.54145567     -1.98694205     -1.03326616
H      -1.75799916     -0.71708043     -1.22798068
H      -0.30827185     -1.38496290      1.40515252
H      -1.51212531     -0.16629089      1.24730129
H       0.70391111      2.16443925     -0.58196246
H      -0.43336985      1.13023553     -1.43354974
H      -2.19299671      1.68356096      0.26897345
H      -1.00766750      2.60370198      1.21001716
H      -0.78752445      4.08921762     -0.62930272
H      -2.33227653      4.00829648     -0.12362931
H       1.32748819     -0.63817334     -1.22625443
H       2.28077846      0.56678100     -0.37187244
H       2.42207212     -0.96440020      1.63409697
H       1.61824641     -2.22443339      0.68341887
H       3.96044818     -2.43494754      0.62704095
H       4.16428027     -0.93120995      0.03711004
H      -5.01046068     -0.59388597     -0.29800671
H      -3.65504476     -1.34429239     -0.70462168
H      -4.05794640      0.28735385      1.67860152
H      -2.63796341     -0.72356103      1.41674702
H      -3.61319832      1.62081466     -0.27545619
H      -2.10855430      1.54715926      0.61719708
H      -1.93690221      1.24941651     -1.79746457
H      -1.19604899     -1.22998514     -0.37210032
H      -0.68969738     -0.76608956     -1.97875618
H       0.00181368      0.77258556      0.58236266
H       0.43742038      1.28446720     -1.06077179
H       1.23130131     -1.25769032      0.21026430
H       2.78783791      1.16338499     -0.43737451
H       2.34078283      0.63232349      1.19588310
H       4.06513764     -0.97150186     -0.78173171
H       3.62154227     -1.49801688      0.84733617
H       5.21645404      0.86966144      0.16473278
H       5.78324134     -0.53367159      0.76331036
