46
CCCCC(CCCC)(CCCC)C(=O)NO
C      -3.21193381      3.63630881      1.80862657
C      -1.75821566      3.30135346      1.51424004
C      -1.63590524      2.03877400      0.65502400
C      -0.16308063      1.71147493      0.36811207
C       0.14278274      0.44781638     -0.50202183
C      -0.67073232     -0.78864004     -0.02268782
C      -0.38107419     -2.08804706     -0.79213988
C      -1.30061649     -3.24357385     -0.38484331
C      -1.09669364     -3.70357282      1.05043223
C       1.68845097      0.17164174     -0.43284059
C       2.23626496     -0.34736265      0.90644594
C       3.76290891     -0.48551689      0.91453021
C       4.28229720     -1.55637004     -0.03256698
C      -0.17468726      0.78827177     -1.98388493
O       0.69476186      1.00292730     -2.83209922
N      -1.50168221      0.89459867     -2.32944447
O      -1.74223599      1.10795649     -3.70971815
H      -3.76874033      3.81422364      0.88309708
H      -3.69996135      2.82111808      2.35230059
H      -3.27576562      4.54014999      2.42252022
H      -1.22338489      3.16168343      2.46088175
H      -1.29162317      4.14898908      0.99898404
H      -2.11147329      1.20718859      1.18591861
H      -2.18706682      2.19786163     -0.27528117
H       0.32754237      1.60808937      1.34188520
H       0.29754428      2.58641544     -0.11119199
H      -1.74595224     -0.59339842     -0.09880766
H      -0.47884711     -0.94549560      1.04523571
H       0.65923412     -2.39846684     -0.64910889
H      -0.51459969     -1.91636556     -1.86636955
H      -1.10724074     -4.09173821     -1.05252701
H      -2.34859159     -2.95785592     -0.53215079
H      -0.04899881     -3.96049426      1.23599283
H      -1.70393296     -4.59250483      1.24938639
H      -1.39638509     -2.93222206      1.76572841
H       2.22383352      1.09674720     -0.68923526
H       1.95377482     -0.54604397     -1.21917631
H       1.79480950     -1.31851352      1.15326355
H       1.96534569      0.33720276      1.71582649
H       4.08115974     -0.74002501      1.93270583
H       4.22727710      0.47670627      0.66949488
H       4.10623107     -1.28808544     -1.07818539
H       5.36201222     -1.68122313      0.09858727
H       3.80355685     -2.52092333      0.16363443
H      -2.24060105      0.41485080     -1.82979512
H      -0.82976572      1.18408960     -4.06959606
