46
CN(C)Cc1cc(CN(C)C)c(O)c(CN(C)C)c1
C      -1.62630795      3.83546859     -0.98530776
N      -1.35673217      3.68678419      0.44787964
C      -2.08916489      4.70883891      1.19768712
C      -1.74012607      2.34445300      0.92596620
C      -0.86010644      1.23518372      0.38755117
C       0.53289703      1.28681123      0.54323690
C       1.35956437      0.25601488      0.06758197
C       2.86325973      0.41356925      0.18784541
N       3.57116541     -0.85638678      0.48061524
C       5.01098444     -0.67696386      0.26091206
C       3.34033764     -1.26242158      1.87587562
C       0.75811843     -0.83897577     -0.57839073
O       1.53291329     -1.86531081     -1.05537253
C      -0.63077469     -0.92449984     -0.74089586
C      -1.28356576     -2.09201852     -1.45415794
N      -2.39045178     -2.71050195     -0.68844584
C      -3.12600623     -3.63926682     -1.54821542
C      -1.87105019     -3.42563118      0.48140596
C      -1.42764771      0.12670031     -0.25471102
H      -1.03075370      3.13402911     -1.57862821
H      -1.34199984      4.83812075     -1.32458018
H      -2.68442548      3.68073388     -1.22555945
H      -1.78556378      5.71226761      0.87833965
H      -3.17424606      4.61952255      1.07031213
H      -1.85987064      4.64104123      2.26688868
H      -1.64982449      2.30189229      2.01988839
H      -2.79485551      2.14254516      0.69533892
H       0.97200782      2.15738362      1.02866469
H       3.11360494      1.16818725      0.94487497
H       3.20154463      0.80789106     -0.77974603
H       5.43375749      0.10790453      0.89866610
H       5.54879814     -1.61114058      0.45844489
H       5.20958602     -0.41755414     -0.78490824
H       3.68682606     -0.50695665      2.59063453
H       2.27831407     -1.45293802      2.06288820
H       3.86350099     -2.20169336      2.08911714
H       2.41973507     -1.75606398     -0.64468662
H      -0.54933604     -2.85744054     -1.73372298
H      -1.67497568     -1.68657465     -2.39735077
H      -2.49048041     -4.44799240     -1.92709272
H      -3.96425208     -4.08644932     -1.00244203
H      -3.55927820     -3.11039359     -2.40438230
H      -1.16185830     -4.21435846      0.20472712
H      -2.69214939     -3.88694752      1.04161867
H      -1.37343773     -2.74300071      1.17816920
H      -2.50767436      0.06613794     -0.37977317
