39
O=[N+]([O-])c1cc(N(CCO)CCO)ccc1NCCO
O       1.53046655     -3.26593695      1.74756285
N       2.01212202     -2.12225281      1.72298569
O       3.01267080     -1.76418598      2.36226791
C       1.31962955     -1.12043987      0.91404726
C      -0.08661811     -1.20717518      0.87283449
C      -0.82400593     -0.30553654      0.10567720
N      -2.23639469     -0.33670611      0.01216109
C      -2.70731762     -1.54321377     -0.73983923
C      -2.45824034     -1.39560007     -2.24742444
O      -3.07904481     -0.20450516     -2.72933485
C      -2.87091471     -0.21195988      1.35862709
C      -4.18226195      0.57641256      1.23438124
O      -3.91582297      1.87555457      0.70571172
C      -0.12705892      0.66505537     -0.61632093
C       1.27362569      0.74268638     -0.57185544
C       2.04146977     -0.12201875      0.22192823
N       3.44184969     -0.09695979      0.19344587
C       4.19773618      1.10643365     -0.17841266
C       4.16727850      2.15662414      0.93814524
O       4.79148970      1.63386827      2.11012700
H      -0.59906446     -1.98415625      1.43578863
H      -3.79043191     -1.63566570     -0.59433304
H      -2.25127153     -2.46556122     -0.36062651
H      -1.39091986     -1.34608032     -2.48186877
H      -2.88559852     -2.24522686     -2.78818516
H      -2.88360433      0.46965090     -2.05096221
H      -3.05473541     -1.19808380      1.80132868
H      -2.21459755      0.35069341      2.03637761
H      -4.89164360      0.07823413      0.56689525
H      -4.65293942      0.69559040      2.21449819
H      -3.22214230      1.73431117      0.03262312
H      -0.67130984      1.37089879     -1.24024030
H       1.74126378      1.50161289     -1.19174386
H       3.84368087     -0.48394759      1.06010348
H       5.23658332      0.79021383     -0.33064344
H       3.85877220      1.52648083     -1.12980313
H       3.14191044      2.44447094      1.18975500
H       4.71949152      3.04891759      0.62805605
H       4.66589821      2.28750276      2.81907783
