36
c1cc(OCC2CO2)c2ccc(OCC3CO3)cc2c1
C      -1.77606810     -2.77694686      0.76965963
C      -2.62702088     -1.79534749      0.26551383
C      -2.11394432     -0.56325718     -0.15343662
O      -2.88130692      0.45780862     -0.66236758
C      -4.29093888      0.25646779     -0.74269278
C      -4.89772635      1.49235793     -1.32174176
C      -5.29527314      2.65070286     -0.44730068
O      -6.26463938      1.72053733     -0.95654079
C      -0.71977279     -0.30956744     -0.06710463
C      -0.13701035      0.90852061     -0.47210360
C       1.23935131      1.12543012     -0.37283896
C       2.07694649      0.13528172      0.13283976
O       3.40057620      0.47588206      0.17596864
C       4.30865453     -0.49976588      0.68579917
C       5.68512214      0.07651360      0.62336313
C       6.23955857      0.90033053      1.75399441
O       6.61208992     -0.47462105      1.56741532
C       1.52359949     -1.07896054      0.53997818
C       0.13726352     -1.31309056      0.44643719
C      -0.40677618     -2.53774878      0.85933306
H      -2.18124749     -3.73243536      1.09380061
H      -3.68551627     -2.02699423      0.21346162
H      -4.70188750      0.06215240      0.25554752
H      -4.51552479     -0.58526262     -1.40795681
H      -4.59995156      1.68137108     -2.34373148
H      -5.06441225      2.61045961      0.60989195
H      -5.28236357      3.64442167     -0.87681044
H      -0.75980866      1.70587267     -0.87265388
H       1.65670739      2.07641424     -0.69426910
H       4.28089022     -1.40303230      0.06516106
H       4.04750744     -0.75280088      1.72074529
H       6.02867075      0.26524877     -0.38422742
H       5.59560634      1.13929277      2.59105605
H       6.98047991      1.65495354      1.52202267
H       2.15277451     -1.86900966      0.93804705
H       0.23539067     -3.32117909      1.25676122
