16
O=Cc1ccccc1C=O
O       2.50429971     -1.80170770      0.86007546
C       2.11205834     -0.68290491      0.53601642
C       0.68391295     -0.43601016      0.22220931
C      -0.18343009     -1.54030433      0.31553788
C      -1.54543771     -1.41047572      0.04018812
C      -2.06139268     -0.17473216     -0.33271498
C      -1.21503361      0.93064087     -0.43008933
C       0.15981318      0.80970619     -0.15442627
C       0.94792566      2.05634813     -0.29430149
O       2.15040393      2.13289043     -0.09451265
H       2.83010047      0.14296030      0.47877951
H       0.20286128     -2.51729168      0.60644519
H      -2.19900677     -2.27666968      0.11823646
H      -3.12292296     -0.07183291     -0.54770712
H      -1.64565919      1.88622209     -0.72417002
H       0.38150750      2.95316124     -0.59956648
