31
CC(=O)NC(COC(=O)c1ccccc1)C(=O)O
C      -3.32735298      2.31719369     -2.48689221
C      -2.27616493      1.50460470     -1.78171446
O      -1.28723039      2.01561444     -1.26654626
N      -2.51354344      0.15525268     -1.76367748
C      -1.55770316     -0.78822760     -1.17597851
C      -1.57520615     -0.75112393      0.36234680
O      -0.35968602     -0.19582278      0.90956542
C       0.76152645     -0.92754893      0.70240775
O       0.79258600     -1.98502143      0.08558779
C       1.94698782     -0.27976196      1.31855698
C       3.13618434     -1.01590304      1.40537668
C       4.27574638     -0.44301145      1.97332794
C       4.23341797      0.86610237      2.45184588
C       3.05460981      1.60611428      2.36221420
C       1.91173458      1.03717258      1.79585711
C      -1.90998667     -2.19366533     -1.66424412
O      -2.96434523     -2.46094092     -2.23145522
O      -0.96460954     -3.13026591     -1.42900003
H      -4.17784749      1.70208385     -2.79340309
H      -3.69050361      3.09510484     -1.80978807
H      -2.88689424      2.77614068     -3.37592671
H      -3.29202030     -0.24309447     -2.28385154
H      -0.57927213     -0.52345901     -1.59288064
H      -2.39102040     -0.11894825      0.73083935
H      -1.72776316     -1.74144925      0.80946279
H       3.18187851     -2.03743927      1.03361612
H       5.19699514     -1.01676437      2.04089308
H       5.12204583      1.31259265      2.89206197
H       3.02568654      2.62938434      2.72943414
H       1.00577885      1.63543194      1.72354216
H      -0.16402837     -2.80034512     -0.94546801
