19
CCC(C)OC(=S)S.[Na+]
C      -1.83789724     -1.25818282      0.41205560
C      -1.53984204     -0.04644122     -0.46167743
C      -0.10456890      0.46328829     -0.27456323
C       0.12907281      1.71118504     -1.12004525
O       0.79426503     -0.57826811     -0.72331726
C       2.05197965     -0.73140795     -0.23298145
S       2.91435961     -1.99184981     -0.90789575
S       2.74443247      0.28760326      1.00796148
Na      0.00000000      0.00000000      0.00000000
H      -2.87677864     -1.57471866      0.27523175
H      -1.69179546     -1.02235115      1.47095353
H      -1.19263642     -2.10408270      0.15544289
H      -2.25281318      0.75026688     -0.21972522
H      -1.70229244     -0.33128491     -1.50840978
H       0.04977053      0.68572922      0.78640612
H       1.15506181      2.07557028     -1.01001438
H      -0.01132521      1.49342131     -2.18469855
H      -0.55449911      2.51652087     -0.83422809
H       3.92550672     -0.34499783      1.04174828
