40
CN(C(=O)NC(C)(C)c1ccccc1)c1ccccc1
C       1.39812761      1.51072987     -1.20835196
N       1.75418492      0.26266546     -0.52892255
C       0.75630001     -0.68137861     -0.22200373
O       0.92679956     -1.89483171     -0.16665931
N      -0.47707867     -0.11319771      0.01692767
C      -1.69369920     -0.85777494      0.39099582
C      -1.47565558     -1.54799073      1.75516671
C      -2.04406703     -1.94531229     -0.64903095
C      -2.84574169      0.17480288      0.41250682
C      -3.63541667      0.42575895      1.54723859
C      -4.65948558      1.37872645      1.51892472
C      -4.91468553      2.10267974      0.35819570
C      -4.14566189      1.87693931     -0.77781393
C      -3.12316939      0.92591116     -0.75001517
C       3.16151449     -0.02354152     -0.34503706
C       4.15563167      0.82547039     -0.86666109
C       5.51949620      0.56923494     -0.67196063
C       5.92474038     -0.53833174      0.06143976
C       4.96536953     -1.38293343      0.60466108
C       3.60257318     -1.12338891      0.40792762
H       0.32311681      1.61467032     -1.37509058
H       1.73916576      2.36004323     -0.60837682
H       1.85841263      1.52813421     -2.20177255
H      -0.41259567      0.79811909      0.44599467
H      -0.66753415     -2.28602548      1.71660118
H      -1.20317717     -0.82251954      2.53100717
H      -2.37360808     -2.08360521      2.08455579
H      -1.32815937     -2.77355085     -0.63522249
H      -2.04987400     -1.54952085     -1.67096960
H      -3.03406627     -2.37430932     -0.45208475
H      -3.47896676     -0.11084357      2.47900965
H      -5.25997754      1.55312648      2.40849320
H      -5.71245502      2.84025593      0.33970310
H      -4.34036398      2.43833939     -1.68783927
H      -2.53335963      0.77195961     -1.65236451
H       3.90806873      1.70833365     -1.44664376
H       6.26217130      1.23969964     -1.09680108
H       6.98123721     -0.74069214      0.21313335
H       5.26771995     -2.24879159      1.18831954
H       2.90416894     -1.80706053      0.88124682
