28
O=C(NC(=O)c1ccccc1)c1ccccc1
O      -0.13821804      1.18933491     -0.23896796
C      -0.68107436      0.11593945     -0.00730225
N      -0.02587873     -1.09122086      0.17102282
C       1.18977972     -1.35363916     -0.42296234
O       1.29659385     -2.32826276     -1.16537996
C       2.36232789     -0.48117951     -0.13999441
C       2.46195962      0.27471359      1.03468705
C       3.60113024      1.04666058      1.27604085
C       4.64836760      1.05616066      0.35493472
C       4.56251236      0.29236585     -0.80823393
C       3.42491094     -0.47891585     -1.05362371
C      -2.16410765      0.07210170      0.14287672
C      -2.80153623     -0.86083715      0.97274021
C      -4.19453229     -0.86221292      1.07884463
C      -4.95201694      0.06781488      0.36685884
C      -4.32118175      1.00794158     -0.44684355
C      -2.92979932      1.01423375     -0.55586542
H      -0.63169238     -1.88373216      0.00086869
H       1.65988077      0.27811291      1.76686526
H       3.66951868      1.64320890      2.18224535
H       5.53259173      1.65969005      0.54421637
H       5.38016016      0.29620461     -1.52443142
H       3.36802769     -1.07710325     -1.96068103
H      -2.23478046     -1.57481036      1.56402942
H      -4.69121880     -1.58289415      1.72458278
H      -6.03622754      0.06643424      0.45333336
H      -4.91155246      1.73904217     -0.99405748
H      -2.44394433      1.75484830     -1.18888350
