28
NS(=O)(=O)c1cc(S(=O)(=O)c2cccc(O)c2)cs1
N       5.35686971     -0.70194803      0.22839393
S       3.91323855     -0.65999202      1.08286880
O       3.93305474      0.56707310      1.84433478
O       3.75747525     -1.95479562      1.70095133
C       2.57998588     -0.48412030     -0.06996100
C       1.55363554      0.43660018     -0.16608508
C       0.69941666      0.17555244     -1.27957916
S      -0.69054183      1.13737742     -1.67048968
O      -1.18150880      0.61347320     -2.92802736
O      -0.22341639      2.50065312     -1.52079083
C      -1.86603496      0.77812656     -0.40165311
C      -2.18090985      1.74752068      0.55591723
C      -3.11019323      1.44914752      1.55351330
C      -3.72265531      0.19425580      1.58817719
C      -3.40486525     -0.75413092      0.61862924
O      -3.98343649     -1.98788031      0.61562394
C      -2.48366212     -0.47427004     -0.38238954
C       1.10517840     -0.92771631     -1.99906283
S       2.50451218     -1.64649748     -1.32428254
H       5.95729100      0.06127986      0.54374140
H       5.79333855     -1.61702923      0.35035744
H       1.43534370      1.25900861      0.53154737
H      -1.71331597      2.73005402      0.53433397
H      -3.35956603      2.19625720      2.30388020
H      -4.44336837     -0.02233715      2.37128087
H      -4.61534380     -2.04224041      1.35192885
H      -2.26118788     -1.22609638     -1.13533360
H       0.65066611     -1.34732551     -2.88826734
