29
O=C(OCc1ccccc1)c1ccccc1O
O       1.41370502     -1.07942893      2.12778182
C       1.18761960     -0.61089323      1.02016854
O      -0.01516439     -0.20212348      0.55934579
C      -1.08121914     -0.35701054      1.49896856
C      -2.34401040      0.13782745      0.84384869
C      -2.71527453      1.48622065      0.94225715
C      -3.87501028      1.94819157      0.31774160
C      -4.66920934      1.07004333     -0.41734385
C      -4.30275788     -0.26958440     -0.53292125
C      -3.14342837     -0.73366837      0.09078135
C       2.25261924     -0.42586132      0.00246368
C       1.97270870      0.11366418     -1.26313376
C       2.99488217      0.27680778     -2.20228107
C       4.30052948     -0.09616475     -1.88650519
C       4.58864474     -0.63293944     -0.63219417
C       3.57119664     -0.79698718      0.30693499
O       3.94947537     -1.33178291      1.51076703
H      -1.19112976     -1.41225929      1.77809802
H      -0.87546462      0.22468158      2.40607524
H      -2.10034274      2.18527494      1.50488730
H      -4.15717185      2.99445320      0.40216834
H      -5.57146273      1.43078734     -0.90415533
H      -4.91851746     -0.95295899     -1.11192528
H      -2.86510192     -1.77985233     -0.01600970
H       0.96256500      0.41259839     -1.53449474
H       2.77143328      0.69536914     -3.18097279
H       5.09591881      0.03064488     -2.61693733
H       5.60606433     -0.92440909     -0.38395840
H       3.15790306     -1.40064019      2.08816136
