28
O=C(Nc1ccccc1)Nc1ccccc1
O      -0.02172656     -1.34979809     -0.02604392
C      -0.00215266     -0.13374715      0.10659330
N      -1.12498165      0.68245917      0.14804142
C      -2.47792178      0.28330083      0.16132460
C      -2.90034697     -1.03716992      0.32407655
C      -4.26389652     -1.34911489      0.33784257
C      -5.21624428     -0.34322390      0.19404653
C      -4.80644717      0.97789904      0.03883487
C      -3.44411308      1.28947285      0.02507168
N       1.14620562      0.63607447      0.23813659
C       2.48580325      0.20633448      0.13444281
C       3.48302999      1.12824059      0.48099779
C       4.83480416      0.78378600      0.39567941
C       5.20290963     -0.48518483     -0.04204354
C       4.21955438     -1.40563098     -0.39595248
C       2.86657711     -1.06077644     -0.31054626
H      -0.95866008      1.66532997      0.00047852
H      -2.19272774     -1.85085451      0.45000330
H      -4.57712504     -2.38264304      0.46291574
H      -6.27451296     -0.59022046      0.20479311
H      -5.54626507      1.76629578     -0.07184518
H      -3.15279862      2.32900329     -0.09734396
H       1.01071893      1.56882343      0.59464146
H       3.22450403      2.12568337      0.82559249
H       5.59893534      1.50585953      0.67111209
H       6.25281769     -0.75759210     -0.10944375
H       4.50018355     -2.39733865     -0.74192732
H       2.13387651     -1.80526783     -0.60643006
