58
C[C@@H](NC1=CC(=O)CCC1)c1ccc(Nc2ncc3cc(-c4ccncc4)ccc3n2)cc1
C      -5.14449031     -1.74354918     -2.09215682
C      -4.35723439     -0.76296674     -1.21944345
N      -5.12567561     -0.45250899     -0.01942254
C      -5.94147093      0.63943973      0.23420582
C      -6.44072222      0.85512234      1.46484918
C      -7.27023274      2.04229638      1.78304241
O      -7.69986923      2.19072125      2.92552160
C      -7.49726772      3.07107362      0.70353211
C      -7.52832716      2.41050201     -0.66336755
C      -6.26942802      1.58101244     -0.91003576
C      -2.99424155     -1.28825235     -0.79636983
C      -1.89376501     -0.42076842     -0.78145143
C      -0.62652542     -0.86447635     -0.37903302
C      -0.41694499     -2.17991812      0.03792267
N       0.82323629     -2.68715562      0.43582427
C       2.11116401     -2.16394100      0.49841220
N       3.03057100     -3.00321479      1.00176316
C       4.29676001     -2.55054048      1.07485035
C       4.69123309     -1.29064435      0.66075926
C       6.01970233     -0.81744712      0.73241273
C       6.34657011      0.47255680      0.29213281
C       7.72715092      0.97450863      0.35918898
C       8.78325096      0.26874851     -0.22980294
C      10.06792760      0.78301226     -0.14244961
N      10.37341928      1.93630520      0.48711405
C       9.34799594      2.60687162      1.05102224
C       8.03078858      2.17515368      1.01284137
C       5.30961089      1.26611733     -0.21493069
C       3.99547082      0.78102807     -0.27878401
C       3.66559944     -0.49596559      0.15377126
N       2.39870272     -0.92374740      0.07390789
C      -1.52399366     -3.04155404      0.03385405
C      -2.79304147     -2.60615007     -0.36894057
H      -5.44477301     -2.64136136     -1.54045248
H      -4.55466706     -2.05832189     -2.96045483
H      -6.06510983     -1.27932768     -2.46222605
H      -4.19342520      0.14412309     -1.81474076
H      -4.88522978     -1.02003888      0.79125763
H      -6.23961078      0.19471868      2.29980980
H      -6.69783507      3.81775825      0.76378421
H      -8.45511800      3.56959778      0.88874149
H      -8.40924323      1.75788805     -0.73358306
H      -7.63169294      3.17077438     -1.44585064
H      -6.42708702      1.01649338     -1.83615817
H      -5.41247474      2.24613704     -1.07523488
H      -2.01042500      0.61898474     -1.07979307
H       0.18812309     -0.14714986     -0.39068487
H       0.84043097     -3.63165418      0.79213980
H       5.00762033     -3.25973701      1.48983271
H       6.79610540     -1.45946133      1.14529893
H       8.61358595     -0.66146710     -0.76312131
H      10.90937231      0.26426608     -0.59332486
H       9.61939464      3.53131610      1.55376478
H       7.25911743      2.76473080      1.49804785
H       5.51372389      2.27100653     -0.58108263
H       3.21106161      1.41837999     -0.68143332
H      -1.40996776     -4.07587295      0.35031445
H      -3.61779975     -3.31345190     -0.33649220
