33
CC(C)(C)c1ccc(OCC2CO2)cc1
C      -3.41232906      0.24194223     -1.31246868
C      -2.98187548      0.04834491      0.15760815
C      -3.69648116      1.13694900      0.98996578
C      -3.49248595     -1.31923730      0.66048624
C      -1.44748239      0.09642098      0.25798622
C      -0.66153453     -0.83519596     -0.44730111
C       0.73848576     -0.82253107     -0.38035259
C       1.39257805      0.12695097      0.39740694
O       2.74447933      0.25421422      0.55312724
C       3.56794151     -0.67349347     -0.15247835
C       4.99226462     -0.36332066      0.17305924
C       5.77443615      0.64429725     -0.62519904
O       5.94033619     -0.76910696     -0.82235927
C       0.63205115      1.05725736      1.10291488
C      -0.76662916      1.04440945      1.03594029
H      -4.50453738      0.24659026     -1.40720837
H      -3.03822683     -0.55649110     -1.96261066
H      -3.03885727      1.19277076     -1.71088014
H      -3.41106145      2.14469556      0.66629797
H      -3.46767591      1.04342857      2.05799231
H      -4.78568192      1.06204089      0.88638695
H      -3.12005850     -2.15028213      0.05155892
H      -4.58739191     -1.36712930      0.63214738
H      -3.17721513     -1.50199538      1.69464950
H      -1.13310651     -1.59490338     -1.06763283
H       1.27876825     -1.57079315     -0.95036678
H       3.39521603     -0.58531569     -1.23220458
H       3.35100140     -1.69706667      0.17487149
H       5.24076955     -0.51918559      1.21363591
H       6.57641084      1.17771075     -0.13077124
H       5.26612240      1.20542789     -1.39932009
H       1.13030001      1.80518102      1.71526445
H      -1.29853068      1.79741573      1.61042621
