25
Cc1cc(C)c(OCC(=O)O)c(Br)c1
C       3.49153210     -0.36825236      1.72445096
C       2.15810350     -0.08257582      1.09743833
C       1.82551967     -0.64039833     -0.14503888
C       0.59984818     -0.35322372     -0.76739175
C       0.29165091     -0.97121881     -2.10166732
C      -0.31400540      0.47855462     -0.10303875
O      -1.51993859      0.76529067     -0.69426331
C      -2.50871159     -0.20179264     -0.30090436
C      -3.87407538      0.30881375     -0.72839135
O      -4.90780667     -0.33545079     -0.62359657
O      -3.84430287      1.56477124     -1.23837312
C       0.03210122      1.08012797      1.11440853
Br     -1.13118543      2.30223226      1.98456980
C       1.26129891      0.79802776      1.71261182
H       3.83634653     -1.37508515      1.46645547
H       3.42855481     -0.31701972      2.81651927
H       4.23144334      0.35963554      1.37776367
H       2.53691425     -1.30093178     -0.64000406
H      -0.26175242     -1.90500473     -1.96442685
H       1.21187741     -1.19060713     -2.65385704
H      -0.29763924     -0.29175571     -2.72576736
H      -2.32589681     -1.14918868     -0.81737726
H      -2.52700020     -0.33928236      0.78581312
H      -2.91951952      1.89928365     -1.23462858
H       1.52664331      1.26505027      2.65869560
