22
CN(C)c1ccc(C=O)cc1
C      -2.65208086      0.22233213      0.88090618
N      -1.78923889      0.02226426     -0.28277800
C      -2.38209466     -0.73673078     -1.38307203
C      -0.40191160     -0.00850360     -0.09990304
C       0.20927245      0.53346499      1.04802933
C       1.59942122      0.52567802      1.23537188
C       2.42259273     -0.02459605      0.25900324
C       3.88525591     -0.03253802      0.45536371
O       4.65335269     -0.50991976     -0.37049174
C       1.86202495     -0.55693130     -0.89670099
C       0.47074292     -0.54014929     -1.06878037
H      -2.47838337     -0.55072650      1.63766684
H      -2.49740797      1.21227323      1.32298518
H      -3.71163493      0.17971117      0.60432937
H      -2.19123560     -1.80947540     -1.26887575
H      -2.00158745     -0.39475595     -2.35160242
H      -3.46815005     -0.59551973     -1.42223557
H      -0.38763069      0.98949989      1.83245998
H       2.01373165      0.95670214      2.14254082
H       4.25780346      0.41552554      1.39173751
H       2.49616935     -0.98296088     -1.67119835
H       0.09098875     -0.96162335     -1.99475579
