21
CC(=O)Nc1cc(Cl)ccc1[N+](=O)[O-]
C       3.53232120     -0.05539356     -0.29426293
C       2.22585484      0.66208065     -0.06141589
O       2.20131997      1.86249089      0.18129419
N       1.14037702     -0.19164698     -0.12878244
C      -0.23929341      0.11069985      0.03156189
C      -0.67602543      1.42517650      0.26318985
C      -2.03461002      1.72033417      0.41802137
Cl     -2.53176074      3.34395257      0.69962634
C      -2.99330337      0.71634934      0.34591407
C      -2.59338600     -0.59838929      0.11646017
C      -1.22616463     -0.90500011     -0.04063295
N      -0.87649885     -2.31859579     -0.27731676
O       0.31485085     -2.60215599     -0.47981068
O      -1.79264706     -3.15238728     -0.26137285
H       3.84438972     -0.54973376      0.62939179
H       3.43246655     -0.79527381     -1.09371475
H       4.29600413      0.66781027     -0.59461079
H       1.36000024     -1.17273200     -0.31007849
H       0.02382708      2.25320106      0.32673468
H      -4.04857420      0.95037092      0.46683318
H      -3.35914790     -1.37115764      0.06297100
