19
CNc1ncc2nccnc2n1
C      -3.20082957     -0.08633917      1.00929996
N      -2.72976096     -0.13457725     -0.35647005
C      -1.35149975     -0.15986725     -0.49797886
N      -0.89643216     -0.83672497     -1.55396513
C       0.44208810     -0.85557716     -1.72122845
C       1.34727546     -0.24655154     -0.88924016
N       2.69122413     -0.29702532     -1.09830875
C       3.44404456      0.34869280     -0.18797484
C       2.87543482      1.00777979      0.87984238
N       1.53753939      1.04744882      1.07780063
C       0.75288368      0.42149488      0.19047990
N      -0.56395752      0.46093747      0.38244325
H      -2.92064387      0.85154204      1.50110703
H      -4.29417970     -0.14097810      1.01355540
H      -2.82352168     -0.93149962      1.59571047
H      -3.09415981     -0.89390033     -0.92106242
H       0.78932655     -1.40481629     -2.59147101
H       4.51689164      0.32149510     -0.33983139
H       3.47827667      1.52846611      1.61551866
