26
COP(=S)(OC)SSP(=S)(OC)OC
C       3.60292614     -2.38953666      0.68374864
O       3.00791577     -1.12664919      0.45662423
P       1.57008104     -1.05432222     -0.30851416
S       1.63229707     -1.83908775     -2.09881129
O       1.40056290      0.56626562     -0.33575885
C       2.32423059      1.35269050     -1.06317962
S       0.12838323     -1.81471112      1.07737382
S      -0.39689132     -0.08770519      2.07489170
P      -1.59418385      0.88355144      0.59147599
S      -1.49218572      2.83177434      0.45394346
O      -3.11727016      0.35186683      0.82717986
C      -3.82886617      0.78870441      1.96880659
O      -1.30159007      0.13498501     -0.82620561
C      -2.06617426      0.47569356     -1.96642309
H       2.85566738     -3.14385548      0.94184819
H       4.30733793     -2.29696242      1.51439818
H       4.15347366     -2.70321274     -0.20675222
H       2.27940119      2.37726223     -0.68498336
H       3.34561114      0.98237446     -0.94424431
H       2.05083478      1.36106813     -2.12123628
H      -4.28648041      1.76076861      1.76838674
H      -4.62207062      0.06707013      2.18050308
H      -3.17812015      0.85919797      2.84377465
H      -1.99199308     -0.34089670     -2.68924180
H      -3.11928158      0.62121837     -1.71287798
H      -1.66361543      1.38244785     -2.42472655
