39
C=C1C2CCC3C2C(C)(C)CCCC13C
C       1.87524087      0.05642201      2.10380661
C       1.32350631     -0.17318350      0.90518265
C       0.63037004     -1.45716780      0.50358326
C       1.52916206     -2.14933228     -0.54618063
C       1.31800342     -1.28499754     -1.80670979
C       0.43583499     -0.12023377     -1.27991341
C      -0.52022954     -0.94701898     -0.37848092
C      -1.76217237     -0.29121148      0.28228896
C      -2.84070642     -0.11637222     -0.81877420
C      -2.35063514     -1.27274571      1.32532386
C      -1.54537745      1.05780685      1.00106824
C      -0.95315536      2.16264297      0.14254790
C       0.56301156      2.12932820      0.02058439
C       1.24932148      0.77999312     -0.28761995
C       2.67304605      1.11589755     -0.78436656
H       1.86123611     -0.69918702      2.88299094
H       2.35559038      1.00160885      2.33482943
H       0.35447166     -2.11285486      1.33112868
H       1.19446149     -3.17560070     -0.73510155
H       2.58183805     -2.18440474     -0.24535872
H       2.25614649     -0.97021340     -2.26909913
H       0.77091904     -1.86104753     -2.56372440
H      -0.04524422      0.43000270     -2.09221611
H      -0.91720256     -1.79980231     -0.95393725
H      -2.47654939      0.47398743     -1.66469881
H      -3.15638204     -1.08723224     -1.21913045
H      -3.73593752      0.37789600     -0.42455210
H      -3.31361876     -0.91374620      1.70712613
H      -2.51814639     -2.26439168      0.88981489
H      -1.68458175     -1.39212644      2.18642936
H      -2.52315727      1.41344889      1.35686410
H      -0.95005603      0.92933815      1.91225179
H      -1.22250259      3.12803822      0.59141674
H      -1.40293332      2.17798716     -0.85477284
H       0.82299177      2.84911430     -0.76856018
H       0.98926784      2.55037722      0.94143825
H       3.15346692      1.85638366     -0.13286635
H       3.33835939      0.24610699     -0.79681435
H       2.64234221      1.53649016     -1.79579847
