27
CCCCC(C)C(C)O
C       3.70010028      0.31598008      0.61401852
C       2.61671005      0.84582449     -0.31191973
C       1.29883831      0.09162355     -0.12238116
C       0.21395858      0.63480596     -1.05823924
C      -1.15376970     -0.08348296     -0.96581673
C      -1.04535696     -1.53705287     -1.43667164
C      -1.79781133      0.02566684      0.43510593
C      -3.22091389     -0.52125950      0.49377847
O      -1.84105473      1.39410839      0.84130906
H       3.40762343      0.42562292      1.66319093
H       3.89764441     -0.74327509      0.42094196
H       4.63243228      0.86867476      0.46174988
H       2.46638820      1.91369562     -0.11500178
H       2.95412501      0.75120842     -1.35062028
H       0.97965210      0.18903074      0.92099314
H       1.46455690     -0.97396561     -0.31549208
H       0.07239721      1.70461195     -0.85903990
H       0.57227422      0.56916972     -2.09409956
H      -1.80808767      0.44191408     -1.67593803
H      -0.49619829     -1.60219679     -2.38205886
H      -2.03590139     -1.96895650     -1.61080201
H      -0.53175736     -2.16250354     -0.69962818
H      -1.19282578     -0.50950336      1.17462259
H      -3.25019050     -1.60097850      0.32417006
H      -3.86025069     -0.03065802     -0.24828794
H      -3.66604580     -0.31826565      1.47418663
H      -2.37653688      1.88016088      0.19103110
