35
CC1c2nc3ccccc3c(=O)n2C(C)CN1C
C      -2.02737802      0.27543965     -2.01987783
C      -1.58149243      0.81968475     -0.65508020
C      -0.11378242      0.36680048     -0.39470050
N       0.75291752      0.59572950     -1.33532279
C       2.09151755      0.24979730     -1.13243950
C       3.01244036      0.48669830     -2.15584545
C       4.36086932      0.15612648     -1.99228964
C       4.79996126     -0.41634810     -0.79890087
C       3.88994987     -0.65738611      0.22941177
C       2.54239330     -0.32067050      0.05259872
C       1.54927584     -0.56082913      1.10959118
O       1.90312220     -1.08122485      2.16530160
N       0.24182307     -0.17263547      0.82791673
C      -0.77616300     -0.47957889      1.83130796
C      -1.23227830     -1.94054908      1.71270137
C      -1.95282439      0.49564170      1.72767961
N      -2.55183147      0.40931318      0.39223865
C      -3.77087487      1.22270050      0.34677456
H      -3.01746270      0.64058750     -2.30766085
H      -1.33968498      0.58030266     -2.81631953
H      -2.05441731     -0.82041107     -2.01465874
H      -1.53495648      1.91679176     -0.70786150
H       2.67292027      0.93196375     -3.08767553
H       5.06607037      0.34559838     -2.79789195
H       5.84817940     -0.67504325     -0.67049671
H       4.22666612     -1.10505977      1.16155404
H      -0.32981888     -0.35171148      2.82596848
H      -2.00996228     -2.16627820      2.44966713
H      -1.62646944     -2.16642109      0.71604485
H      -0.39627805     -2.62561695      1.89005621
H      -2.69258344      0.23408859      2.49484424
H      -1.61436729      1.51957384      1.93680668
H      -3.56293317      2.28702607      0.50571194
H      -4.29477206      1.11108134     -0.60690683
H      -4.47777546      0.89481822      1.11775269
