53
CCN1C=CC(=CC=Cc2cc[n+](CC)c3ccccc23)c2ccccc21.[I-]
C       6.35420529      0.01622237      2.86554595
C       6.13050947     -1.03785128      1.77352669
N       4.93619281     -0.72262321      1.04343941
C       3.69581592     -0.85699672      1.72741363
C       2.52960921     -0.60283437      1.19003346
C       2.44679490     -0.15294964     -0.18784339
C       1.31410960      0.11875394     -0.78783198
C       0.03321623     -0.00545715     -0.13004984
C      -1.05810280      0.29794743     -0.83110631
C      -2.40913017      0.23191281     -0.33848168
C      -2.66336299     -0.19853219      0.96717513
C      -3.96068309     -0.25029969      1.42058662
N      -5.03050162      0.09412222      0.67443170
C      -6.36749864      0.01490705      1.28237359
C      -6.94810438     -1.33654154      0.96604603
C      -4.81664402      0.50951848     -0.58000649
C      -5.90702503      0.86342523     -1.36394342
C      -5.68658358      1.28942927     -2.65953817
C      -4.42621072      1.37326995     -3.19512720
C      -3.36496958      1.00837353     -2.37439778
C      -3.50886995      0.58129975     -1.09360367
C       3.73006369     -0.00573634     -0.92064299
C       3.76068554      0.41634375     -2.23061175
C       4.94944743      0.56831598     -2.95080717
C       6.11829435      0.28601393     -2.32580411
C       6.09129141     -0.13682952     -1.01441033
C       4.93490555     -0.29305588     -0.28848662
I       0.00000000      0.00000000      0.00000000
H       5.81572078      0.95676144      2.63234640
H       5.93705185     -0.38041278      3.79043963
H       7.44111229      0.17639654      2.99944641
H       7.03869084     -1.20176589      1.19193020
H       5.93817057     -2.04332374      2.27838893
H       3.68658070     -1.19282256      2.77355120
H       1.61487411     -0.72561184      1.76851896
H       1.31509546      0.44774314     -1.80406868
H      -0.01441735     -0.33183491      0.88605628
H      -0.87102378      0.61276484     -1.84281531
H      -1.82264398     -0.47888417      1.58021055
H      -4.12773418     -0.58575439      2.42895696
H      -6.26010938      0.08356192      2.40401912
H      -7.02834920      0.81066506      0.92783541
H      -6.97144507     -1.94359494      1.88993251
H      -6.40607284     -1.84669432      0.14122311
H      -8.02568344     -1.19597546      0.66761313
H      -6.91139818      0.81362048     -1.00579873
H      -6.52368510      1.56739736     -3.27896249
H      -4.23424125      1.70753776     -4.21551280
H      -2.39005975      1.08174894     -2.81272258
H       2.87797726      0.65754827     -2.79062442
H       4.96268170      0.89918388     -3.97888718
H       7.04908849      0.39375421     -2.85200512
H       7.03236457     -0.35215701     -0.53905465
