15
Nc1cc(=O)nc(N)[nH]1
N      -2.13490297     -1.12640984      0.05122244
C      -1.03167447     -0.31865227     -0.08566913
C      -1.09077061      0.88395754     -0.67679425
C       0.14489452      1.70457340     -0.80008763
O       0.04523192      2.84341410     -1.24680604
N       1.34405228      1.14136200     -0.42054574
C       1.30907858     -0.02290624      0.13363768
N       2.44643257     -0.64419618      0.53347739
N       0.18331589     -0.73931335      0.38317393
H      -2.12657940     -1.63782975      0.92963570
H      -3.01627838     -0.63411157     -0.07864848
H      -1.99300718      1.31415670     -1.08598685
H       2.39888091     -1.00697431      1.47784873
H       3.23923423     -0.01372086      0.43928820
H       0.28209207     -1.74334938      0.44625406
