53
CC(O)COc1ccc(C(C)(C)c2ccc(OCC(C)O)cc2)cc1
C      -7.25735296      1.12680583      2.03224029
C      -6.68523176     -0.22914414      2.42420167
O      -6.07716464     -0.10689844      3.71269393
C      -5.65455266     -0.75392441      1.41474927
O      -4.58467553      0.19350964      1.31952002
C      -3.57426273     -0.09504076      0.44572279
C      -3.45569179     -1.25015955     -0.32250179
C      -2.36047052     -1.42314052     -1.18174311
C      -1.35676199     -0.44734802     -1.29121446
C      -0.13603133     -0.59443563     -2.23165424
C      -0.34808490      0.42373925     -3.38288331
C      -0.03504540     -1.98733837     -2.90741564
C       1.18894320     -0.39002015     -1.45777384
C       2.17522338      0.52597024     -1.85756026
C       3.36696069      0.67743370     -1.13328969
C       3.60166215     -0.08643435      0.00681072
O       4.71379562     -0.03382940      0.79936725
C       5.76469040      0.84893147      0.39002267
C       6.91853634      0.73687852      1.39641395
C       7.47255486     -0.67770600      1.50365425
O       6.46869784      1.14466333      2.69117303
C       2.63449618     -1.00136312      0.41693185
C       1.44693712     -1.15454958     -0.30403043
C      -1.49698316      0.71437063     -0.50823564
C      -2.58836668      0.88434687      0.34823817
H      -8.00449437      1.44791781      2.76623722
H      -6.48302526      1.90129893      2.01987682
H      -7.73217100      1.08698193      1.04734497
H      -7.50077038     -0.95410707      2.51638776
H      -5.24768868      0.38998836      3.57643537
H      -6.13368758     -0.88707568      0.43768000
H      -5.25738872     -1.70843899      1.78039835
H      -4.19419305     -2.04375574     -0.27971547
H      -2.31909865     -2.34279622     -1.75905578
H      -0.33759700      1.46099529     -3.02752056
H       0.42668886      0.33092511     -4.15334731
H      -1.31383938      0.26339906     -3.87878229
H       0.86243029     -2.05747079     -3.53502829
H       0.02050067     -2.80147047     -2.17506250
H      -0.89613080     -2.18570953     -3.55679801
H       2.04526680      1.14592566     -2.74051601
H       4.08665236      1.40586543     -1.49179387
H       6.12307634      0.57709096     -0.60975477
H       5.39046481      1.87970203      0.39605808
H       7.72192627      1.41974156      1.10080262
H       7.82605779     -1.03941713      0.53353404
H       6.72125653     -1.37546847      1.88867244
H       8.30910518     -0.70282636      2.21054166
H       5.63949528      0.65662804      2.85770439
H       2.80121498     -1.60296018      1.30702795
H       0.71471104     -1.87689143      0.05274377
H      -0.74578597      1.50120886     -0.55127617
H      -2.66479809      1.79063773      0.94376816
