43
CC(=O)O[C@H]1[C@@H]([C@H]2COC(C)(C)O2)O[C@@H]2OC(C)(C)O[C@H]12
C       0.09207607      3.37050590      2.73426601
C       0.46589248      1.93401454      2.53714381
O       0.88160932      1.19627408      3.41746072
O       0.29640252      1.58108655      1.23409550
C       0.54342139      0.19163207      0.93755101
C       0.03233030     -0.14726675     -0.46876309
C      -1.30899557      0.47697866     -0.82533222
C      -1.82470064      0.05324429     -2.18070882
O      -3.22518100      0.32843279     -2.09389355
C      -3.55159478      0.14002749     -0.70852510
C      -4.36370943      1.33731970     -0.23156590
C      -4.33097455     -1.15870816     -0.54644256
O      -2.34432644      0.04809606      0.06608501
O       1.05235018      0.28711031     -1.39227371
C       2.27558793      0.41859372     -0.65092623
O       3.28960327     -0.42997408     -1.16133132
C       3.26379364     -1.60736008     -0.34999411
C       4.65470653     -1.82002323      0.23720138
C       2.84283044     -2.79563691     -1.20461546
O       2.32428996     -1.45646483      0.72310811
C       2.02531696     -0.05635903      0.76212825
H       0.76830867      4.01055387      2.16233362
H      -0.94376856      3.52999920      2.42395637
H       0.17850581      3.62521033      3.79439735
H       0.06230643     -0.45409191      1.68154664
H      -0.03741854     -1.23968423     -0.55899663
H      -1.25954023      1.57286951     -0.78975367
H      -1.70276943     -1.02086875     -2.35962524
H      -1.37841411      0.60935946     -3.00935201
H      -3.79222070      2.26414978     -0.35703879
H      -5.28737369      1.44716976     -0.80933115
H      -4.61109405      1.25186162      0.83168074
H      -5.24873782     -1.14898185     -1.14356617
H      -4.58505962     -1.34191033      0.50282674
H      -3.73217137     -2.01127119     -0.88695690
H       2.59128925      1.46487499     -0.70664960
H       5.40674181     -1.93143596     -0.55096596
H       4.68139669     -2.70006635      0.88826791
H       4.95111615     -0.95813742      0.84612233
H       3.52764505     -2.94303243     -2.04626851
H       1.84492606     -2.63197504     -1.62664047
H       2.79572776     -3.71547674     -0.61240345
H       2.67987587      0.42936057      1.49174913
