31
CCc1ccc(CC(C)(C)C#N)cc1
C       4.01539183      1.26470342      0.84751588
C       3.85183071      0.03417442     -0.03140604
C       2.40127881     -0.26856976     -0.30664041
C       1.75507095      0.29445738     -1.41288929
C       0.40653697      0.02638140     -1.65933431
C      -0.32489204     -0.80173748     -0.79853761
C      -1.78583026     -1.08717860     -1.06194373
C      -2.81075103     -0.11517426     -0.41595187
C      -2.71953552     -0.12398596      1.11935496
C      -2.63399919      1.32520599     -0.92548946
C      -4.16698031     -0.58001040     -0.80211524
N      -5.22503867     -0.94708182     -1.10652015
C       0.32430708     -1.36678568      0.30645168
C       1.67284367     -1.09866473      0.55283339
H       3.52312645      1.12915133      1.81653013
H       5.07661905      1.46052396      1.03068789
H       3.58352013      2.15230912      0.37282526
H       4.38427644      0.18192992     -0.97889018
H       4.32450759     -0.83067201      0.44991874
H       2.30006992      0.94551991     -2.09298274
H      -0.06643036      0.47126063     -2.53221382
H      -1.99697199     -2.11616981     -0.73482799
H      -1.93771946     -1.11230491     -2.15130453
H      -1.77160322      0.29486997      1.47281113
H      -3.52358636      0.47258755      1.56785556
H      -2.81180934     -1.14124285      1.51793385
H      -1.68512260      1.76004306     -0.59458626
H      -3.43474771      1.97770271     -0.55589478
H      -2.66378793      1.36663849     -2.02074611
H      -0.21365162     -2.02301554      0.98725781
H       2.15307803     -1.54486545      1.42100000
