38
COc1ccc(CC2NCC(O)C2OC(C)=O)cc1
C       6.27537419     -0.89877382     -0.03159700
O       5.37140550     -0.66900672      1.04161673
C       4.11413736     -0.24603307      0.70801913
C       3.64268008     -0.00720738     -0.58202419
C       2.32664851      0.42549470     -0.78221890
C       1.46452909      0.62573336      0.30253829
C       0.04175568      1.08547489      0.08618305
C      -0.89495896     -0.03601929     -0.39954124
N      -0.78652711     -0.31535055     -1.84931642
C      -2.01379346     -1.06928170     -2.16829251
C      -3.09321540     -0.60746306     -1.18419641
O      -4.13993431      0.07955132     -1.87020274
C      -2.36962218      0.34516464     -0.22234444
O      -2.76804085      0.15448566      1.14689027
C      -4.04589711      0.52043122      1.43794923
C      -4.32475242      0.31643161      2.89476015
O      -4.85734583      0.94235828      0.62513035
C       1.94221997      0.38034532      1.59500703
C       3.25686978     -0.04962873      1.79226174
H       6.46977020      0.02379818     -0.58852293
H       5.91038594     -1.69154024     -0.69299966
H       7.22459058     -1.23440256      0.39714253
H       4.26776696     -0.15039521     -1.45664063
H       1.97578562      0.59577658     -1.79803143
H       0.03952406      1.92938296     -0.61664423
H      -0.33988268      1.49656263      1.03026534
H      -0.67893326     -0.95392653      0.16538352
H      -0.82492491      0.56822306     -2.36218228
H      -1.80810437     -2.13551351     -2.01962476
H      -2.29710526     -0.92296660     -3.21547294
H      -3.53496585     -1.46517880     -0.66476659
H      -4.71805090      0.46906177     -1.17792110
H      -2.53310604      1.39608909     -0.50066329
H      -3.62598331      0.90728428      3.49233964
H      -4.24184154     -0.74467425      3.14233551
H      -5.34163873      0.65083967      3.11915594
H       1.29870623      0.52042596      2.46004200
H       3.61647472     -0.23555317      2.80122078
