49
N#CCCOCCN(CCC#N)c1ccc(N=Nc2ccc([N+](=O)[O-])cc2)cc1
N      -5.75554348      4.92408861     -1.71808101
C      -6.25851571      3.87839160     -1.70321885
C      -6.87831769      2.54975860     -1.68120998
C      -6.28087225      1.67129284     -0.58514314
O      -5.12761005      0.94783212     -1.02640691
C      -3.90856575      1.69743928     -0.94636264
C      -2.69350884      0.77520427     -1.15121756
N      -2.36963642      0.02819091      0.09615251
C      -3.15487151     -1.22034987      0.27644751
C      -3.07524417     -1.74157170      1.71379335
C      -3.95827573     -2.89939362      1.87863789
N      -4.66894491     -3.80910388      2.00007565
C      -0.97579946     -0.18244554      0.20450428
C      -0.25107108     -0.99478096     -0.67686050
C       1.12892234     -1.16387647     -0.51583941
C       1.81527809     -0.51334934      0.51870333
N       3.19886177     -0.67294112      0.72880309
N       3.84414365     -0.45186688     -0.31970475
C       5.22539296     -0.59655796     -0.09577573
C       5.78085166     -1.79547979      0.37900405
C       7.16090186     -1.92056049      0.56935114
C       7.99717825     -0.83631239      0.27476917
N       9.44639788     -0.95994173      0.47555183
O      10.15941403     -0.00860310      0.12897749
O       9.87022657     -2.00965904      0.98079461
C       7.46126604      0.36193581     -0.21599623
C       6.07857473      0.47105442     -0.40261985
C       1.08885986      0.28885221      1.40313103
C      -0.28983097      0.45822110      1.24443483
H      -6.76152966      2.07064331     -2.65984150
H      -7.95122374      2.67490600     -1.49357499
H      -6.06979424      2.22029905      0.34085870
H      -7.02055581      0.90288363     -0.33404742
H      -3.91310587      2.44222102     -1.74788384
H      -3.83626404      2.20790851      0.02080732
H      -1.85038293      1.42199327     -1.42941341
H      -2.87435772      0.07562352     -1.97777386
H      -4.20798360     -1.01657179      0.05470958
H      -2.84396363     -1.99275152     -0.43942736
H      -3.36899420     -0.94995978      2.41344724
H      -2.04922700     -2.02826875      1.96790909
H      -0.74933495     -1.49896118     -1.50143979
H       1.67313442     -1.80376870     -1.20623975
H       5.13089955     -2.63893450      0.60546974
H       7.56164724     -2.85923308      0.94696821
H       8.09770344      1.21086810     -0.45689331
H       5.65598053      1.39741253     -0.78811318
H       1.60222068      0.79150669      2.21939241
H      -0.83453016      1.09671577      1.93592722
