22
c1ccc2c(c1)ccc1nccnc12
C       3.26712476     -0.63713338     -0.02448042
C       2.48259689     -1.76389029     -0.23665620
C       1.09101127     -1.64907978     -0.25290670
C       0.44793244     -0.40792445     -0.05796546
C       1.26187334      0.73089647      0.15702626
C       2.66096354      0.60322670      0.17127154
C       0.65983231      1.97435255      0.35339877
C      -0.72822889      2.09027637      0.33741320
C      -1.54258033      0.99021036      0.12901597
N      -2.87712844      1.17929188      0.12688526
C      -3.64123930      0.08793621     -0.07872446
C      -3.09510567     -1.15935051     -0.27720195
N      -1.76170913     -1.36647010     -0.27818137
C      -0.95941711     -0.28803853     -0.07376829
H       4.35057890     -0.72214195     -0.01107753
H       2.94783266     -2.73412472     -0.38999484
H       0.49514467     -2.54574973     -0.42104164
H       3.29306908      1.47354315      0.33582820
H       1.26107617      2.86539701      0.52071298
H      -1.18686279      3.06421746      0.49155852
H      -4.71291421      0.24800625     -0.07903261
H      -3.71385017     -2.03345098     -0.44207923
