51
C=CC(=O)OCCCCCCCCCCCCCC
C       6.12647317     -3.04497261      0.68506657
C       5.68098060     -2.11042341     -0.16397458
C       6.36080053     -0.80234551     -0.27621118
O       7.34347141     -0.46209118      0.36024701
O       5.69164696     -0.06676614     -1.19785720
C       6.20474779      1.25176714     -1.43137898
C       5.68188271      2.25652175     -0.40481712
C       4.20362125      2.62900869     -0.57402800
C       3.22910068      1.48813371     -0.27649385
C       1.78075113      1.98371723     -0.26838827
C       0.80449865      0.84124659      0.01743571
C      -0.64297734      1.33535415      0.02648364
C      -1.61892389      0.19277288      0.31213607
C      -3.06658749      0.68672654      0.32108445
C      -4.04310900     -0.45644892      0.60739429
C      -5.49060830      0.04003032      0.61187057
C      -6.50326310     -1.03939200      1.00484413
C      -6.60012559     -2.18016461     -0.00884298
C      -7.69727141     -3.16435474      0.36763340
H       5.62704190     -4.00424215      0.76782668
H       6.99634687     -2.87347566      1.31399133
H       4.81391142     -2.27997793     -0.79040062
H       7.30152752      1.23646040     -1.42982401
H       5.89860184      1.54629695     -2.44106664
H       6.26936031      3.17747659     -0.50344836
H       5.84045285      1.87979567      0.61209617
H       3.99051474      3.46336615      0.10628111
H       4.03297038      3.00391051     -1.59060078
H       3.46849668      1.03998928      0.69518498
H       3.32719850      0.70419384     -1.03462504
H       1.66339544      2.76513056      0.49224625
H       1.54257364      2.43733203     -1.23819462
H       1.04396101      0.38747255      0.98684604
H       0.92097931      0.05949817     -0.74303939
H      -0.88228052      1.78917218     -0.94293437
H      -0.75961067      2.11692235      0.78709695
H      -1.37969884     -0.26102437      1.28158421
H      -1.50210060     -0.58880972     -0.44843948
H      -3.30632761      1.14001440     -0.64849232
H      -3.18263381      1.46862278      1.08144824
H      -3.80572705     -0.90705872      1.57858965
H      -3.91503469     -1.23483276     -0.15298120
H      -5.74730153      0.44316638     -0.37534549
H      -5.58217999      0.86910176      1.32462183
H      -7.48728582     -0.56421693      1.10362033
H      -6.24735108     -1.44176615      1.99260438
H      -6.80693388     -1.77618187     -1.00652142
H      -5.64982192     -2.72140731     -0.06580202
H      -7.74821526     -3.97412927     -0.36696398
H      -7.50582044     -3.60795273      1.34993970
H      -8.67411750     -2.67116686      0.39717972
