22
Clc1ccccc1-c1c(Cl)c(Cl)cc(Cl)c1Cl
Cl     -0.73716290     -0.98762526     -2.54867120
C      -1.50756090     -0.48169839     -1.08344895
C      -2.90362239     -0.53420412     -1.03027690
C      -3.57490873     -0.13836679      0.12564837
C      -2.85317987      0.31000164      1.22889137
C      -1.45827291      0.36360797      1.17883125
C      -0.76012107     -0.03109629      0.02221242
C       0.71782277      0.03863765      0.00390492
C       1.50217804     -1.06849872      0.41310638
Cl      0.72303565     -2.52345285      0.96956390
C       2.90433152     -0.99983894      0.37604931
Cl      3.91681833     -2.31520804      0.86395573
C       3.54096790      0.15999774     -0.06285975
C       2.78722217      1.26105776     -0.46622402
Cl      3.65907546      2.66073614     -0.98981908
C       1.38417585      1.20963366     -0.43558547
Cl      0.45783533      2.59644454     -0.93782766
H      -3.47368749     -0.88314891     -1.88771612
H      -4.66077149     -0.17989561      0.16515573
H      -3.37623690      0.61899890      2.13109366
H      -0.91588166      0.71765646      2.05382236
H       4.62794331      0.20626142     -0.08980626
