57
CCCCOC(=O)CCC(C)(OOC(C)(C)C)OOC(C)(C)C
C       7.40812015      1.03723984     -0.42917254
C       6.64295797     -0.27571828     -0.38504598
C       5.18705379     -0.06115983      0.01927797
C       4.41772315     -1.37796596      0.06611856
O       3.06932739     -1.14394108      0.50106948
C       2.17813956     -0.81526867     -0.47777195
O       2.44456871     -0.70810899     -1.66627639
C       0.81711390     -0.60349191      0.13768054
C      -0.21660251     -0.19645853     -0.91565834
C      -1.61327928      0.03688057     -0.30630693
C      -2.64518578      0.44678484     -1.36397248
O      -1.54543159      1.06240485      0.70896995
O      -1.06679580      2.29317615      0.07900033
C      -1.60607142      3.39843704      0.82367236
C      -1.08429255      4.66079382      0.12822779
C      -1.09295216      3.36742135      2.26697921
C      -3.13720580      3.39128857      0.77509527
O      -2.06854981     -1.16158826      0.35953193
O      -2.14036644     -2.23307757     -0.63417557
C      -3.16117683     -3.15120250     -0.20733925
C      -2.78515088     -3.77407868      1.14100377
C      -3.20552660     -4.24845460     -1.27673517
C      -4.52477111     -2.45613942     -0.14039864
H       6.96432609      1.72579649     -1.15527026
H       7.40815826      1.52440867      0.55109982
H       8.44817504      0.86030823     -0.72051943
H       6.68897546     -0.75219300     -1.37119421
H       7.13118238     -0.95255598      0.32571406
H       4.70034935      0.62788523     -0.68150263
H       5.13288675      0.42404939      1.00186440
H       4.87331290     -2.05265316      0.79918592
H       4.43642525     -1.89672954     -0.89984880
H       0.51706991     -1.53922557      0.62140219
H       0.91017505      0.18011185      0.89737977
H       0.13257182      0.71180217     -1.42291171
H      -0.26406654     -0.97658619     -1.68589879
H      -2.77050735     -0.32226444     -2.13283668
H      -3.62417202      0.60349657     -0.89706288
H      -2.36963198      1.38101790     -1.86355894
H      -1.40443310      4.68861714     -0.91982973
H       0.01175229      4.67477396      0.11662522
H      -1.43687445      5.57216221      0.62222564
H       0.00070640      3.30145904      2.28939474
H      -1.46943571      2.49183683      2.80707287
H      -1.40034826      4.26063965      2.82098220
H      -3.55705901      4.28125255      1.25567064
H      -3.49358919      3.35451908     -0.26035244
H      -3.55053186      2.51127423      1.27971464
H      -2.77097959     -3.02343176      1.93878895
H      -1.77922921     -4.20715210      1.10202396
H      -3.49198842     -4.55851929      1.43132733
H      -2.23046338     -4.74042397     -1.37133945
H      -3.43373570     -3.82380825     -2.26130116
H      -3.95695590     -5.01073962     -1.04580114
H      -5.32537001     -3.16700213      0.09013473
H      -4.75879194     -1.96560212     -1.09188303
H      -4.53954939     -1.67429681      0.62673032
