35
CCC(CC)(C(=O)NC(N)=O)C(=O)OCOC
C      -0.17166244      0.71737855     -2.30022054
C      -0.38471423     -0.59630312     -1.54653076
C      -0.62671715     -0.43723188     -0.01760440
C      -0.84330744     -1.81937701      0.67073552
C       0.20408844     -2.89171559      0.39323551
C      -1.95286075      0.33504534      0.20722340
O      -2.80944155      0.41965112     -0.67721580
N      -2.18512832      0.78242531      1.49951064
C      -3.20862331      1.59417957      1.89844415
N      -4.36814218      1.49225112      1.21103547
O      -3.08663172      2.37204856      2.83740431
C       0.55553299      0.24735288      0.66715553
O       0.43917440      0.97890885      1.64467687
O       1.74535087     -0.09949192      0.11724580
C       2.87702529      0.48107730      0.76443689
O       4.08550551      0.06377350      0.13186786
C       4.23587081      0.63657776     -1.15945380
H      -0.00819446      0.50968256     -3.36300442
H      -1.03669705      1.38130343     -2.22496626
H       0.70515832      1.25796955     -1.93246773
H       0.49685684     -1.21987839     -1.73584959
H      -1.23205872     -1.12388634     -2.00328673
H      -1.82037122     -2.22355533      0.37265541
H      -0.89647827     -1.68155955      1.75936426
H      -0.03361481     -3.79458980      0.96611772
H       0.22299586     -3.17564913     -0.66253833
H       1.20527870     -2.57007992      0.69113533
H      -1.36222023      0.93430474      2.07885258
H      -4.30018678      1.18274323      0.24424653
H      -5.05439788      2.20802629      1.40587477
H       2.92155252      0.12560774      1.79958902
H       2.81364497      1.57632021      0.76063117
H       3.43046957      0.31188637     -1.82506226
H       4.25565435      1.72886972     -1.09634114
H       5.18728905      0.29593429     -1.57689698
