25
CCOC(=O)c1[nH]c(C)cc1C
C       3.69413383      1.60047852     -0.87671172
C       3.13614037      0.27403040     -0.39881292
O       1.71195186      0.39595878     -0.30913244
C       1.08423437     -0.74136218      0.11414497
O       1.65574421     -1.78548501      0.39880095
C      -0.34234492     -0.50868135      0.16835832
N      -0.93858247      0.68925801     -0.16361796
C      -2.29862022      0.61154789     -0.01542492
C      -3.18336837      1.76532021     -0.30704643
C      -2.58862914     -0.66233432      0.42127285
C      -1.36352123     -1.37733075      0.54070254
C      -1.21548001     -2.79092767      0.98274932
H       3.42444147      2.40422482     -0.18361632
H       3.27336057      1.86668327     -1.85201098
H       4.78354833      1.55773915     -0.96159284
H       3.55029107      0.03281217      0.58660431
H       3.39635145     -0.51491105     -1.11338649
H      -0.42343654      1.50391742     -0.47274195
H      -2.92877657      2.61651898      0.33245785
H      -3.08133889      2.07366408     -1.35243425
H      -4.23293924      1.50987244     -0.12970869
H      -3.57993976     -1.04405920      0.63402876
H      -0.59590463     -2.84870195      1.88332014
H      -2.18863824     -3.23594299      1.21425128
H      -0.74867729     -3.39228966      0.19617560
