38
COC(=O)c1sccc1S(=O)(=O)NC(=O)Nc1nc(C)nc(OC)n1
C      -1.50076573      1.59221163     -2.13297770
O      -2.03035301      0.73560902     -1.12057868
C      -3.39446248      0.71273478     -1.07584794
O      -4.10995691      1.40212760     -1.79300226
C      -3.84480298     -0.17068672     -0.01995223
S      -5.27605364      0.26429705      0.83129508
C      -5.16953331     -1.09228557      1.86114264
C      -4.09004071     -1.88664991      1.55296289
C      -3.33116556     -1.36564592      0.45599093
S      -1.95548677     -2.19007341     -0.20455501
O      -1.92593687     -3.47646123      0.45542153
O      -2.14769754     -2.09792683     -1.63670851
N      -0.56867866     -1.37874756      0.15212476
C      -0.20225342     -0.90865501      1.40029766
O      -0.90484060     -1.06588609      2.39089556
N       0.97197242     -0.23338408      1.51429858
C       1.90116590      0.07613446      0.53716600
N       1.69121500     -0.29628953     -0.72508409
C       2.65038959      0.04833798     -1.58795735
C       2.47286401     -0.35721814     -3.01821717
N       3.74589181      0.72422182     -1.26245789
C       3.84558844      1.04526192      0.02157689
O       4.98596077      1.74826208      0.34346669
C       5.09147561      2.05876443      1.72626922
N       2.95748887      0.75081847      0.96700598
H      -1.79805817      2.63002551     -1.95278054
H      -0.41001193      1.53441826     -2.08777708
H      -1.82329433      1.25967054     -3.12458149
H      -5.90810508     -1.25018678      2.63587675
H      -3.85624691     -2.80493905      2.08129601
H       0.02299467     -1.17127616     -0.64926334
H       1.20057640      0.08512185      2.44249530
H       2.42513518     -1.44776029     -3.09196398
H       3.30471438     -0.00331130     -3.63486681
H       1.54421380      0.06562943     -3.41307520
H       6.02821211      2.60442241      1.87583345
H       5.13553731      1.14950441      2.33593234
H       4.27234833      2.70980995      2.05103085
