57
COc1ccc2cc(C(C)C(=O)OCCOC(=O)C(N)CC(C)C)ccc2c1
C       8.44742063      0.95647645      0.89485927
O       8.17579588     -0.27837328      0.24450942
C       6.87014131     -0.53775089     -0.07132730
C       6.65755941     -1.76271214     -0.70296434
C       5.37157917     -2.15622306     -1.07922183
C       4.26970237     -1.32671678     -0.82811176
C       2.96721761     -1.70662173     -1.19724349
C       1.86471901     -0.87434411     -0.94445754
C       0.46223832     -1.32467284     -1.33126315
C      -0.33707531     -1.66005282     -0.06740181
C      -0.24637486     -0.33175651     -2.25713915
O       0.31217241      0.43940413     -3.02850672
O      -1.60343176     -0.47419574     -2.18926641
C      -2.35862922      0.39186456     -3.05506900
C      -2.46940009      1.80611624     -2.48662890
O      -3.26167806      1.78386769     -1.28329276
C      -2.57276152      1.70821309     -0.11021323
O      -1.35172506      1.72145278     -0.00125874
C      -3.54645679      1.60416814      1.07749927
N      -2.80643807      1.76702087      2.35133260
C      -4.26165658      0.24393161      1.03859719
C      -5.27490328     -0.00334926      2.17509976
C      -6.41344510      1.01757242      2.16910594
C      -5.84846272     -1.41812230      2.05660511
C       2.08376771      0.35403425     -0.30799842
C       3.37330941      0.74424953      0.06143933
C       4.47699296     -0.08451050     -0.18969785
C       5.78041344      0.29744115      0.18165956
H       8.18462765      1.80522610      0.25530917
H       7.93647125      1.01539208      1.86142757
H       9.52370848      1.00387045      1.08505359
H       7.50122246     -2.41788634     -0.90507646
H       5.23975795     -3.11700081     -1.57082334
H       2.81292562     -2.66613795     -1.68746262
H       0.54229726     -2.24700885     -1.92287885
H       0.20433924     -2.37566761      0.56193982
H      -1.30418029     -2.11021314     -0.31614162
H      -0.53582108     -0.76940257      0.53742176
H      -1.92335361      0.39951923     -4.06095736
H      -3.35649784     -0.05289926     -3.13342519
H      -1.49035398      2.26290754     -2.30921016
H      -3.00216118      2.44355288     -3.19954920
H      -4.25628138      2.43303394      0.99134410
H      -2.27183949      2.63740467      2.30038860
H      -2.08853514      1.03901118      2.39588089
H      -4.77907573      0.13831845      0.07523814
H      -3.50734716     -0.55579504      1.05401832
H      -4.75958238      0.06163727      3.14095099
H      -6.92670847      1.03399732      1.20167008
H      -7.15377099      0.77737668      2.93980167
H      -6.04507044      2.02645545      2.37828627
H      -5.04984056     -2.16627625      2.09949030
H      -6.38823399     -1.55152790      1.11303198
H      -6.54356390     -1.62656518      2.87695335
H       1.25258235      1.02616197     -0.09948635
H       3.50649703      1.70802209      0.54783183
H       5.91719709      1.25703354      0.66932767
