25
CN[C@@H](CC(C)C)C(=O)O
C      -2.88988127     -0.28998682     -0.08542624
N      -1.97007960      0.74979434      0.39283376
C      -0.57361513      0.60865921     -0.14488235
C       0.03352737     -0.79214612      0.06320208
C       1.54251843     -0.84633488      0.39961301
C       1.84858674     -0.22629418      1.76574487
C       2.43931685     -0.23480180     -0.67211821
C      -0.58396819      1.06994933     -1.62376458
O       0.20459288      0.73912604     -2.49306889
O      -1.59284754      1.95768725     -1.84752093
H      -2.63487358     -1.27947547      0.30412576
H      -2.92780018     -0.33525083     -1.17788081
H      -3.89936371     -0.05274159      0.26522734
H      -1.91620560      0.66507852      1.41214021
H       0.02016947      1.36239225      0.38297256
H      -0.47506667     -1.29256712      0.89787335
H      -0.15344396     -1.41284330     -0.82275147
H       1.80552828     -1.91075633      0.46935865
H       1.69693164      0.85725045      1.76859360
H       1.21356037     -0.66236330      2.54395568
H       2.89102374     -0.41357713      2.04596250
H       3.49481839     -0.39628120     -0.42645562
H       2.25599386     -0.70060377     -1.64536640
H       2.28613797      0.84488531     -0.76334921
H      -2.11556055      1.99120114     -1.00901867
