22
COc1c([N+](=O)[O-])cc([N+](=O)[O-])cc1[N+](=O)[O-]
C       2.17810672     -1.34864388      1.46052409
O       1.78054990     -1.23013654      0.08773520
C       0.65954570     -0.46720063     -0.06747807
C      -0.61204438     -1.04852010     -0.11459509
N      -0.76952201     -2.47168693      0.10294544
O      -0.50823472     -2.89887247      1.23386065
O      -1.20475597     -3.13420871     -0.84617132
C      -1.76924582     -0.30228431     -0.38850534
C      -1.64257841      1.07082794     -0.63544503
N      -2.84068351      1.87232091     -0.92193152
O      -2.68116812      3.08088486     -1.13277745
O      -3.93065557      1.28710869     -0.92571763
C      -0.38419009      1.68614417     -0.61794681
C       0.74677714      0.90224853     -0.33968792
N       2.03769010      1.55842443     -0.36208903
O       2.64822885      1.63265954      0.71097215
O       2.39841389      2.03858727     -1.44306431
H       3.19684147     -0.96290963      1.56022662
H       2.18925947     -2.40946543      1.72714147
H       1.52169449     -0.81127669      2.15517944
H      -2.74161271     -0.79442827     -0.41707119
H      -0.27241644      2.75042725     -0.82610435
