26
FC(F)(F)C(F)(F)C(F)(F)C(F)(F)C(F)(F)C(F)(F)C(F)(F)C(F)(F)F
F      -4.36379327     -1.35005159      0.22492963
C      -3.38828043     -0.54047502     -0.25342075
F      -3.99499808      0.52411833     -0.82115106
F      -2.77095882     -1.22707589     -1.24012531
C      -2.41937246     -0.13511718      0.84183688
F      -3.12201241      0.40495285      1.88785521
F      -1.79666020     -1.22802235      1.36307689
C      -1.38966031      0.88095885      0.38559479
F      -2.04188332      2.03315116      0.03308713
F      -0.62015874      1.24019901      1.45799258
C      -0.45648253      0.50064738     -0.75561301
F      -1.20205078      0.34569982     -1.88905594
F       0.35756416      1.56356155     -1.03230481
C       0.42140736     -0.72855180     -0.56714774
F      -0.39634757     -1.81553717     -0.43019214
F       1.10622398     -0.96814236     -1.72395174
C       1.41544509     -0.71362878      0.58588462
F       0.70538767     -0.68680060      1.75478300
F       2.05888509     -1.92308660      0.60584525
C       2.45820415      0.38736718      0.62246223
F       3.21854135      0.22194064      1.75120178
F       1.85345634      1.59711444      0.77961305
C       3.36579645      0.39459701     -0.59364405
F       3.95195983     -0.80386045     -0.80315659
F       4.35738068      1.30888697     -0.46443500
F       2.69240677      0.71715460     -1.71996491
