22
O=C(O)COCCOCC(=O)O
O       5.09764038      0.59951638     -0.01975410
C       3.94933993      0.44638880      0.36906348
O       3.70784328     -0.08949774      1.58230731
C       2.69642184      0.87607848     -0.37694930
O       1.60260210     -0.01595134     -0.19130033
C       0.42929860      0.43868585     -0.85750767
C      -0.70006180     -0.55942799     -0.61960987
O      -1.88799928     -0.10303307     -1.27756714
C      -2.98707806     -1.00425751     -1.07389308
C      -3.86527278     -0.51430942      0.06915872
O      -4.71480122     -1.18641857      0.63202470
O      -3.61782173      0.78384213      0.37964523
H       4.59457793     -0.31275166      1.93184196
H       2.94336049      0.91408840     -1.44376588
H       2.43016196      1.87909459     -0.02595296
H       0.61846428      0.53666303     -1.93317456
H       0.13723496      1.42516816     -0.47789485
H      -0.88443654     -0.66645662      0.45602503
H      -0.41001097     -1.54184333     -1.01130612
H      -2.64303788     -2.02348948     -0.87125696
H      -3.59348861     -0.99404306     -1.98412190
H      -2.90293690      1.11195397     -0.21131426
