18
CC1OC(=O)C(C)OC1=O
C      -2.74809412      0.43892978     -0.25818809
C      -1.23163823      0.57236321     -0.32012469
O      -0.77665436     -0.34321715     -1.32067761
C       0.55135519     -0.62076679     -1.36320556
O       1.03244192     -1.29526512     -2.26465881
C       1.36336644      0.01439491     -0.23587856
C       2.68533659     -0.71847608     -0.04463418
O       0.70241062      0.01251947      1.03279691
C      -0.61254152      0.34822551      1.05833154
O      -1.21342403      0.48911474      2.11573377
H      -3.18963395      0.59642299     -1.24817389
H      -3.03780215     -0.56802840      0.06336101
H      -3.18765274      1.15998468      0.43822615
H      -0.98203795      1.59030474     -0.64324119
H       1.57565442      1.05385294     -0.51403354
H       2.51412191     -1.76462390      0.23384247
H       3.26432099     -0.26373138      0.76642428
H       3.29047098     -0.70200415     -0.95659092
