17
CC1(C)C(=O)N(Cl)C(=O)N1Cl
C      -1.10901119     -1.35288862     -0.21160872
C      -0.37018035     -0.04131767      0.04105739
C      -1.28143973      1.03086997      0.63262283
C       0.81539678     -0.28985578      0.98497131
O       0.70496072     -0.70436017      2.13280415
N       1.97015137      0.02708676      0.32590517
Cl      3.53186675     -0.10242463      1.01056545
C       1.72248877      0.46118952     -0.95040210
O       2.54662394      0.81514990     -1.78151472
N       0.34003954      0.42396273     -1.12764365
Cl     -0.42229234      0.88799593     -2.59358059
H      -0.43260473     -2.12228703     -0.60223157
H      -1.91677977     -1.22238983     -0.93975270
H      -1.54863685     -1.74373227      0.71288541
H      -1.72511295      0.69596588      1.57692788
H      -0.72744004      1.95370004      0.84132090
H      -2.09802993      1.28333526     -0.05232644
