27
Nc1nc(N)nc(N)n1.O=c1[nH]c(=O)[nH]c(=O)[nH]1
N      -1.36689390     -2.15222221     -0.78515244
C      -0.65945200     -1.02515993     -0.41371037
N      -1.35635844      0.02456404     -0.01329822
C      -0.62889129      1.06671612      0.35048234
N      -1.30390985      2.20048630      0.76277938
N       0.69176963      1.12049804      0.32623151
C       1.28389560      0.01470722     -0.09155124
N       2.66519584      0.00531128     -0.11673177
N       0.66044902     -1.09462085     -0.45077658
O      -0.20565495      2.59485424      0.02898976
C      -0.10995730      1.37683508     -0.07820821
N       1.09596333      0.75105755     -0.13044482
C       1.24867381     -0.59528652     -0.01815998
O       2.34886199     -1.11315602      0.14189355
N       0.10506389     -1.32984457     -0.05209535
C      -1.13929261     -0.78478292      0.00318110
O      -2.14102523     -1.46944964      0.18201991
N      -1.20283521      0.56863700     -0.10990097
H      -2.27701400     -2.15698540     -0.34627992
H      -0.79503757     -2.97852512     -0.68176039
H      -0.72850687      3.01792892      0.61268981
H      -2.23242644      2.21319602      0.36337568
H       3.03367607      0.68471572      0.53410056
H       3.01350420     -0.94061014     -0.05039835
H       1.92274937      1.32318987     -0.04689081
H       0.18533964     -2.32539397      0.09048531
H      -2.10788673      1.00333991     -0.01086950
