50
O=C(CC(C(=O)OC1CCCCC1)S(=O)(=O)[O-])OC1CCCCC1.[Na+]
O       1.29924938     -0.62978227      0.70452918
C       1.50355794     -0.99407016     -0.44568764
C       0.65346698     -1.95986271     -1.21885667
C      -0.68248415     -2.18076727     -0.51700965
C      -1.50591513     -0.92627367     -0.53014625
O      -1.36738896      0.00321003     -1.32151370
O      -2.35848268     -0.88922157      0.53685715
C      -3.25060992      0.23354862      0.60059551
C      -3.77284638      0.33417935      2.03245786
C      -4.70688864      1.52973537      2.21979030
C      -5.45055478      1.92765218      0.94344695
C      -5.70750315      0.72810907      0.04175190
C      -4.40817530      0.04626977     -0.39222280
S      -1.59657007     -3.46658819     -1.31319715
O      -0.71189867     -4.62431715     -1.17231122
O      -1.75855949     -3.00054726     -2.68755090
O      -2.83611263     -3.57338942     -0.54896498
O       2.56596856     -0.60551230     -1.20845586
C       3.47338000      0.32927254     -0.60098122
C       4.49183632     -0.42107979      0.26290614
C       5.57213170      0.51257747      0.79950484
C       6.26106469      1.28079781     -0.32510290
C       5.25475215      2.02355827     -1.19974381
C       4.17621825      1.08588238     -1.73152800
Na      0.00000000      0.00000000      0.00000000
H       1.21554541     -2.89694067     -1.29735225
H       0.50514506     -1.56354896     -2.23046617
H      -0.51458572     -2.49105773      0.52150566
H      -2.69932751      1.15637896      0.37509641
H      -2.93903392      0.39350784      2.74263099
H      -4.30329173     -0.59287964      2.28913722
H      -5.42797331      1.29151213      3.01112010
H      -4.13588104      2.39499235      2.57762738
H      -6.39578997      2.41609454      1.20586747
H      -4.85811565      2.66990053      0.39359758
H      -6.27700904      1.03284141     -0.84356069
H      -6.33223614      0.00385718      0.57976155
H      -4.60219821     -1.01902885     -0.56948231
H      -4.09791245      0.44888501     -1.36479719
H       2.91898112      1.05599926      0.00774570
H       3.98587099     -0.91858713      1.09836050
H       4.95199715     -1.22585648     -0.32525695
H       6.31534512     -0.06623003      1.35927821
H       5.12256875      1.22270946      1.50443688
H       6.83501825      0.58099487     -0.94510568
H       6.97759300      1.99297065      0.09936043
H       5.77567507      2.50020619     -2.03764353
H       4.78592042      2.82558846     -0.61652549
H       4.61881109      0.37068550     -2.43737760
H       3.43724723      1.65362405     -2.30998481
