19
COS(=O)(=O)c1ccccc1
C       3.41761352     -0.36242031      0.57001416
O       2.01446139     -0.20456645      0.49240768
S       1.35731227     -0.14752258     -0.99779828
O       1.79923688      1.07221736     -1.64326555
O       1.56114330     -1.44270269     -1.61717600
C      -0.38003927      0.03741623     -0.68175802
C      -0.80482972      1.03256175      0.20421845
C      -2.16649451      1.17757897      0.46795995
C      -3.09113933      0.33212291     -0.14857200
C      -2.65982884     -0.66067102     -1.03099003
C      -1.29988406     -0.81283888     -1.30120698
H       3.72309757     -1.30949206      0.11588613
H       3.70837197     -0.37170000      1.62378033
H       3.92570852      0.47059955      0.07553634
H      -0.08677958      1.69514147      0.68172220
H      -2.50976527      1.95004562      1.15206968
H      -4.15269563      0.44807585      0.05820391
H      -3.38544593     -1.31541435     -1.50800536
H      -0.97004329     -1.58843138     -1.98885404
