26
NC(Cc1[nH]nc2ccccc12)C(=O)O
N       3.44515847      0.44501689     -0.29603425
C       2.21267098     -0.11045286      0.35108156
C       1.17273122     -0.55978359     -0.69017141
C      -0.22069934     -0.57158424     -0.15087243
N      -0.63553874     -1.48831934      0.78839803
N      -1.92199591     -1.36279930      1.16276444
C      -2.39112521     -0.32669591      0.45193808
C      -3.67170657      0.24991314      0.43926668
C      -3.79696553      1.34284801     -0.44580028
C      -2.72492668      1.82602758     -1.25896553
C      -1.42950728      1.26741177     -1.26701692
C      -1.33616253      0.19319068     -0.38591134
C       2.64838381     -1.29993970      1.22955604
O       1.90963258     -2.17711765      1.65160983
O       3.98048765     -1.25532378      1.49164764
H       3.67048004     -0.13257578     -1.11385489
H       3.19935981      1.35678169     -0.69489644
H       1.81473884      0.66007741      1.02158116
H       1.41928857     -1.55587611     -1.08052130
H       1.20297374      0.11954374     -1.55133395
H      -0.07038187     -2.20919276      1.23782410
H      -4.48213609     -0.11528611      1.05381425
H      -4.76251947      1.84437139     -0.51326360
H      -2.92488154      2.67669868     -1.91181689
H      -0.63409181      1.64657135     -1.89171088
H       4.32673287     -0.46350518      1.00696990
