11
ClCCCCl
Cl     -1.67890414      1.65789093      0.23053478
C      -1.26487273     -0.07226231      0.27294397
C      -0.00824718     -0.37164164     -0.53757008
C       1.26909804      0.26269043      0.00250451
Cl      1.70694948     -0.39424644      1.59730000
H      -1.16415725     -0.37102016      1.31976406
H      -2.11638304     -0.61472009     -0.14925868
H       0.12413425     -1.45971704     -0.58865388
H      -0.15726091     -0.03307347     -1.57062809
H       2.10378866      0.04722075     -0.67162512
H       1.18585481      1.34887903      0.09468855
