29
CCCC(=O)OCCC(C)C
C       4.60734644     -0.15458384      0.86274088
C       4.25702721     -0.19774932     -0.61820588
C       2.85389866     -0.74416710     -0.87423557
C       1.75896835      0.21793512     -0.47280722
O       1.90869592      1.40834702     -0.23840847
O       0.56595747     -0.44184862     -0.44088648
C      -0.55376589      0.38208435     -0.08353359
C      -1.79943932     -0.50042075     -0.06891316
C      -3.06655933      0.22443207      0.41283178
C      -4.22288050     -0.77164413      0.52766938
C      -3.46618887      1.37573158     -0.51091546
H       3.93877859      0.51289813      1.41452142
H       4.54231326     -1.15179702      1.30969692
H       5.63104168      0.20926716      0.99669197
H       4.98346030     -0.84219934     -1.12720183
H       4.36342162      0.80551234     -1.04670025
H       2.71961051     -1.68608928     -0.33045855
H       2.73466349     -0.94116673     -1.94559390
H      -0.38632964      0.81393515      0.90993917
H      -0.65592165      1.18242701     -0.82399675
H      -1.60383367     -1.36576992      0.57834575
H      -1.95609629     -0.91786134     -1.07227787
H      -2.87765939      0.63614330      1.41235314
H      -4.46288425     -1.21621661     -0.44425656
H      -5.12462354     -0.27955556      0.90738671
H      -3.97093122     -1.58279494      1.21901119
H      -3.60393637      1.02908357     -1.54067796
H      -2.70838228      2.16496896     -0.51460945
H      -4.40575129      1.83109876     -0.17946080
