22
C1N2CN3CN1CN(C2)C3
C       1.65969650      0.23855758     -0.05314514
N       0.86723809     -0.34452539     -1.12681044
C       0.20129613     -1.54113129     -0.63144316
N      -0.66452816     -1.20743096      0.49093186
C       0.13861415     -0.61832897      1.55331329
N       0.80411634      0.58475865      1.07329203
C      -0.20129583      1.54113139      0.63144319
N      -1.00682634      0.96719784     -0.43741337
C      -0.13861463      0.61832922     -1.55331322
C      -1.65969662     -0.23855759      0.05314506
H       2.44960872     -0.45642598      0.26306791
H       2.20070937      1.12484209     -0.41197560
H       0.94041560     -2.29809808     -0.33537249
H      -0.37640150     -2.02001101     -1.43387331
H       0.87554946     -1.34315696      1.92547594
H      -0.48716600     -0.38934448      2.42676600
H      -0.83891370      1.84532643      1.47278916
H       0.27490202      2.47278274      0.29645717
H      -0.72815049      0.21466048     -2.38785102
H       0.33976512      1.51784148     -1.96439088
H      -2.30220907     -0.67207056     -0.72544236
H      -2.34810914      0.00365338      0.87434939
