26
OCCNc1ccc2c(c1)OCO2.[Cl-].[H+]
O       4.18693245      0.66247732     -0.82506574
C       3.71424729     -0.60126506     -0.44687233
C       2.21133963     -0.65132535     -0.57945300
N       1.55753344      0.32861288      0.24911885
C       0.14663841      0.41451146      0.24203041
C      -0.48985330      1.35289085      1.03518222
C      -1.86067377      1.46898915      1.05706789
C      -2.66424767      0.65152417      0.28597138
C      -2.04120908     -0.28598446     -0.50704350
C      -0.65575679     -0.39649104     -0.52319033
O      -3.05748204     -0.98129615     -1.18186723
C      -4.25637901     -0.77061589     -0.41387322
O      -4.02288062      0.51821200      0.08724054
Cl      0.00000000      0.00000000      0.00000000
H       0.00000000      0.00000000      0.00000000
H       4.97656744      0.93528401     -0.29353708
H       4.12172245     -1.40849825     -1.08478229
H       3.99651491     -0.84598876      0.60163352
H       1.93874042     -0.41826213     -1.63816507
H       1.90429781     -1.69559198     -0.32725695
H       2.12386074      0.96599437      0.84644806
H       0.15428500      2.00093312      1.64688170
H      -2.33409856      2.20292468      1.67885495
H      -0.18231651     -1.13149788     -1.14591893
H      -5.14737778     -0.83715690     -1.06839723
H      -4.32040484     -1.47838016      0.43068666
