32
CCN(CC)C(=O)SCc1ccccc1Cl
C      -4.21767763     -1.90643272      0.00380069
C      -3.64674314     -0.67525597     -0.68250431
N      -2.44056166     -0.19243226     -0.01293852
C      -2.63035050      0.79848169      1.05252023
C      -2.59993262      2.22152819      0.51583807
C      -1.21852870     -0.70882863     -0.43969754
O      -1.11954741     -1.56383638     -1.31360199
S       0.22255887     -0.07867657      0.34191806
C       1.46490434     -0.67359129     -0.83987750
C       2.85138768     -0.20580149     -0.46427085
C       3.64887815     -1.03016878      0.35198749
C       4.93213184     -0.63598423      0.73552188
C       5.43869851      0.59024967      0.31532868
C       4.65995941      1.42423885     -0.48588560
C       3.37346415      1.03280987     -0.87200048
Cl      2.47032672      2.12906345     -1.85697457
H      -3.49256493     -2.72677587      0.00969480
H      -4.48493735     -1.69074585      1.04327470
H      -5.11743333     -2.24869459     -0.51652447
H      -3.41513211     -0.92034246     -1.72527726
H      -4.39008923      0.12937867     -0.70294289
H      -1.86973451      0.67661917      1.82860877
H      -3.59403508      0.60540257      1.53796376
H      -1.64506291      2.44773640      0.03155555
H      -3.39152470      2.37979439     -0.22374604
H      -2.74771638      2.93702769      1.33057625
H       1.21264860     -0.35118793     -1.85567777
H       1.44713936     -1.77007527     -0.85538503
H       3.26808317     -1.98972038      0.69835315
H       5.53405049     -1.28642399      1.36566871
H       6.43695133      0.89948794      0.61425244
H       5.06038956      2.38315610     -0.80548071
