17
Nc1cc([N+](=O)[O-])ccc1O
N      -2.14254319      1.30660294     -0.14394345
C      -0.99847008      0.48382690     -0.04631989
C       0.28286414      0.98724617     -0.26112722
C       1.37415180      0.10202135     -0.29847351
N       2.72728839      0.63477060     -0.50028512
O       2.84759941      1.85983612     -0.64575154
O       3.66901407     -0.17019093     -0.51519115
C       1.18884381     -1.28318618     -0.16165115
C      -0.09988829     -1.78826014      0.00508468
C      -1.17077144     -0.90473647      0.04721965
O      -2.43518257     -1.40195326      0.20376182
H      -2.51106583      1.27541707     -1.09650035
H      -1.92959754      2.27757700      0.08286313
H       0.43008899      2.05580391     -0.39552306
H       2.02848179     -1.97450091     -0.19353023
H      -0.27069028     -2.85693131      0.09903369
H      -2.99012317     -0.60334287      0.32057895
