29
COP(=S)(OC)Oc1ccc([N+](=O)[O-])c(C)c1
C      -3.43587121      2.41550281     -0.59294284
O      -2.28074282      1.60218341     -0.53750195
P      -2.40675207      0.13203583      0.13219094
S      -2.94291371      0.06302080      1.99636416
O      -3.40753263     -0.59300677     -0.91770703
C      -3.62920743     -1.98301323     -0.78229436
O      -0.99375280     -0.54516725     -0.26368885
C       0.24298186     -0.15495574      0.16624892
C       0.49969433      1.01298225      0.87894358
C       1.80584656      1.31246583      1.27271139
C       2.85222069      0.43804761      0.94281057
N       4.19331446      0.79636765      1.39617425
O       4.86550371     -0.08126322      1.95371415
O       4.55865658      1.96490328      1.20653792
C       2.62070401     -0.73296809      0.20007285
C       3.70827951     -1.69316898     -0.19213805
C       1.29507743     -1.01614985     -0.17087717
H      -3.68086823      2.78823460      0.40469894
H      -4.28431112      1.86184125     -1.00333253
H      -3.22862858      3.26944068     -1.24299435
H      -4.12281132     -2.34611764     -1.68739459
H      -4.28149348     -2.17704374      0.07275167
H      -2.68440936     -2.51921819     -0.66013654
H      -0.28709530      1.71319184      1.14279807
H       1.99752705      2.22417486      1.83627689
H       3.37066984     -2.37172084     -0.98329124
H       4.00651295     -2.30124704      0.66731716
H       4.57812046     -1.15880313     -0.58742104
H       1.07128064     -1.92054900     -0.73541146
