20
CN=C(SC)N(C)C
C       1.62955651     -1.93818993      0.97787293
N       0.40178528     -1.48140009      0.35070911
C       0.07537729     -0.23216306      0.32479706
S       1.12562310      1.02003399      1.00552440
C       1.98208046      1.46474255     -0.52123569
N      -1.11466393      0.18710669     -0.26169902
C      -2.01599977     -0.83820627     -0.78689293
C      -1.77672563      1.42902145      0.12611481
H       1.66541514     -3.03121583      0.92367231
H       2.51691213     -1.56447841      0.45747754
H       1.67185696     -1.67235178      2.03910107
H       2.50400788      0.59872844     -0.93681247
H       2.71744496      2.24515625     -0.30871602
H       1.27407467      1.84677362     -1.26161301
H      -2.51379462     -1.36693845      0.03276667
H      -1.47457395     -1.56446945     -1.40302368
H      -2.78466622     -0.39727511     -1.43091431
H      -2.71622943      1.57226277     -0.41934071
H      -1.15540872      2.30033577     -0.10350831
H      -2.01207212      1.42252683      1.19572028
