17
CC(C)COC=O
C      -1.14552785     -1.03130702      0.80936048
C      -0.72715324     -0.11916690     -0.34592702
C      -1.68630697      1.06359969     -0.46214386
C       0.71456171      0.37560496     -0.17328223
O       1.60347133     -0.75031138     -0.19471445
C       2.91023483     -0.42773094     -0.03245222
O       3.37111796      0.69145414      0.12184530
H      -0.50413784     -1.91668243      0.86709173
H      -1.08741132     -0.50721452      1.76942332
H      -2.17578926     -1.37809840      0.67547971
H      -0.78462144     -0.71076407     -1.26854824
H      -1.66782431      1.68122872      0.44228554
H      -1.41823479      1.69946864     -1.31247074
H      -2.71404259      0.71773447     -0.61527726
H       0.82272871      0.91111941      0.77813216
H       0.97664032      1.05017056     -0.99749155
H       3.51229478     -1.34910493     -0.06131065
