25
Cc1cc(Cl)ccc1O[C@H](C)C(=O)O
C      -1.07577573     -2.36848535      0.14196176
C      -1.45061875     -0.91552597      0.05122346
C      -2.79098160     -0.55023510     -0.14758242
C      -3.14846286      0.79483481     -0.22676052
Cl     -4.79517866      1.22932922     -0.46877103
C      -2.18215175      1.78894990     -0.10201055
C      -0.84459999      1.43804991      0.09543974
C      -0.47466176      0.09007724      0.15240556
O       0.81241366     -0.32420811      0.38212316
C       1.83964355      0.41117096     -0.30129755
C       2.83571209     -0.60314197     -0.84607354
C       2.55930949      1.33800043      0.67685305
O       3.39206116      2.17087921      0.34993692
O       2.19203451      1.14312056      1.96778077
H      -1.95193892     -3.01723670      0.03889653
H      -0.61721824     -2.58135248      1.11301631
H      -0.37356056     -2.62857548     -0.65672951
H      -3.55886220     -1.31529786     -0.23812257
H      -2.46342221      2.83808890     -0.14868134
H      -0.11876654      2.23696515      0.21921557
H       1.43880312      1.00728809     -1.12998319
H       3.26399238     -1.20646080     -0.03737005
H       3.65747966     -0.11152232     -1.37626343
H       2.33917868     -1.29700543     -1.53274077
H       1.51557146      0.43229319      2.02353365
