38
N#CCCN(CCC#N)C(Cc1ccc(O)cc1)C(=O)O
N      -2.98536633     -2.23194376     -3.50631068
C      -2.53474588     -1.42509794     -2.80473593
C      -1.95234616     -0.41050185     -1.91775404
C      -1.83103128     -0.95500635     -0.48653490
N      -1.12637906     -0.00010751      0.39408399
C      -2.03252148      1.05308196      0.90116382
C      -1.29154814      2.36075138      1.21807240
C      -2.24461140      3.39975952      1.62858149
N      -3.00330853      4.21398825      1.95630951
C      -0.32987419     -0.65213711      1.48898308
C       0.89451557     -1.45067459      0.97806105
C       1.83063044     -0.65037470      0.09957438
C       2.57850030      0.40909014      0.63379098
C       3.43206623      1.15275511     -0.18202520
C       3.54553071      0.83701058     -1.52994447
O       4.39122598      1.59000430     -2.28905458
C       2.82033083     -0.21483284     -2.07856322
C       1.96498746     -0.95874902     -1.26233338
C      -1.16476874     -1.55536853      2.40991029
O      -2.29816280     -1.97063596      2.23331065
O      -0.50896951     -1.87316976      3.54747284
H      -0.96249013     -0.12789462     -2.29503264
H      -2.57421660      0.49065246     -1.94168028
H      -1.28804003     -1.90508420     -0.54377194
H      -2.82662252     -1.19869218     -0.09357743
H      -2.59575405      0.70522297      1.77639896
H      -2.78933485      1.28932089      0.14186168
H      -0.55946536      2.21584438      2.01879857
H      -0.74052001      2.69954016      0.33271359
H       0.05618934      0.14877345      2.13084748
H       0.57506055     -2.36162871      0.45689552
H       1.47995420     -1.81582714      1.83327074
H       2.50709933      0.66150529      1.68894459
H       4.01060999      1.97312693      0.23316137
H       4.38862476      1.24104201     -3.19539694
H       2.90716250     -0.47067069     -3.12977059
H       1.40313226     -1.78160835     -1.69863026
H      -1.14554341     -2.43146397      4.04430882
