15
O=[N+]([O-])c1ccc(Cl)cc1O
O      -2.43473539     -1.92468928     -0.29606915
N      -2.14573890     -0.76890792      0.04176149
O      -2.96729786      0.07717099      0.43001306
C      -0.73860628     -0.36408443     -0.01807464
C       0.21711445     -1.29765656     -0.45319693
C       1.56483236     -0.93225265     -0.51779513
C       1.95389064      0.35591359     -0.15039731
Cl      3.61370478      0.79921996     -0.23214529
C       1.00853015      1.28537377      0.28197041
C      -0.34035462      0.92985190      0.34995370
O      -1.17921217      1.91910326      0.78731201
H      -0.06770557     -2.30751609     -0.74397179
H       2.30508771     -1.65480677     -0.85464102
H       1.31522613      2.28893264      0.56770677
H      -2.10473543      1.59434760      0.80757380
