12
O=C1CCCO1
O       2.20171727      1.41067841      0.24684723
C       1.11511498      0.86519873      0.14903911
C       0.87358662     -0.61230682      0.22061102
C      -0.50820520     -0.73045593     -0.37092756
C      -1.13838830      0.58285433      0.01213412
O      -0.06940022      1.52825854     -0.00335219
H       0.89678493     -0.92791101      1.26751067
H       1.61145283     -1.16293481     -0.36705224
H      -0.43445060     -0.80172224     -1.46309570
H      -1.06672139     -1.59877157     -0.01187518
H      -1.56962817      0.55911501      1.01861153
H      -1.91186274      0.88799734     -0.69845080
