25
CCOC(=O)NCC(C)C
C       4.36677775     -0.34026089      0.86049533
C       3.29381881     -0.27896037     -0.20923258
O       2.10777990      0.26842756      0.37812088
C       1.06561622      0.37715535     -0.48130801
O       1.07993159      0.04927788     -1.65749028
N      -0.00017817      0.90230391      0.18218253
C      -1.30140565      1.06374573     -0.42407090
C      -2.12309448     -0.23449403     -0.41501948
C      -3.40913574     -0.04557980     -1.22041439
C      -2.45985827     -0.67723224      1.01057277
H       4.56842652      0.65839895      1.26189353
H       5.29583304     -0.75350988      0.45805217
H       4.03830709     -0.96082871      1.70080050
H       3.62933879      0.36175292     -1.03251360
H       3.08942328     -1.28776906     -0.58529156
H       0.12696172      1.05077212      1.17315168
H      -1.81876775      1.85820774      0.12497686
H      -1.15589995      1.40763132     -1.45488887
H      -1.53976154     -1.03395046     -0.88923554
H      -4.03692794      0.74151568     -0.78889498
H      -3.99381917     -0.97133554     -1.24304337
H      -3.18250796      0.23059341     -2.25564706
H      -3.05870729     -1.59427423      1.00008416
H      -3.03040013      0.09250363      1.54137713
H      -1.55175067     -0.88409101      1.58593706
