37
C/C(=N/Nc1nc(C)cc(C)n1)c1ccccc1C
C       1.78427974     -2.26203910      2.10506690
C       1.38273126     -1.30740819      1.00774089
N       0.12743949     -1.25152272      0.67543849
N      -0.22522629     -0.37417719     -0.30698992
C      -1.58616794     -0.12901731     -0.55441769
N      -1.86479903      1.05292132     -1.13538873
C      -3.15785534      1.33023322     -1.39771255
C      -3.46080746      2.64766312     -2.04483023
C      -4.17893046      0.45489221     -1.09342131
C      -3.80986469     -0.73388224     -0.50144862
C      -4.84492697     -1.75213400     -0.13232157
N      -2.52630452     -1.03449803     -0.23120021
C       2.47287598     -0.52082053      0.38634169
C       2.90443921     -0.90740956     -0.88763693
C       3.93510460     -0.20685940     -1.50936833
C       4.53065831      0.87258875     -0.85868405
C       4.09278192      1.26051615      0.41103492
C       3.04845938      0.57581022      1.04905315
C       2.59087373      1.01358507      2.41063698
H       2.86753625     -2.27465421      2.25254157
H       1.45450570     -3.27163688      1.84257695
H       1.30036028     -1.96172347      3.03897042
H       0.27012061      0.50497503     -0.42054381
H      -2.54237109      3.21818532     -2.21693275
H      -3.95031826      2.49103067     -3.01111453
H      -4.11606771      3.24341673     -1.40173234
H      -5.21390432      0.68724054     -1.30773131
H      -5.55474353     -1.32753014      0.58443574
H      -4.38175324     -2.63116290      0.32751018
H      -5.38750332     -2.08066238     -1.02424964
H       2.43369359     -1.74761936     -1.39356223
H       4.27357459     -0.50172564     -2.49942327
H       5.33774621      1.41794472     -1.34257033
H       4.57241121      2.10847049      0.89634832
H       1.49876511      1.07776291      2.45174477
H       2.94427410      0.31204999      3.17235521
H       2.97891288      2.00719676      2.65948420
