30
N#CCCN(CCC#N)C(CC(=O)O)C(=O)O
N      -0.29942423      4.15829004     -0.80452060
C       0.30107985      3.27785590     -1.26643484
C       1.06237020      2.17420478     -1.86456948
C       0.41549651      0.81133760     -1.56477259
N       0.35366325      0.46128942     -0.12260885
C       1.68515657      0.06742242      0.39718843
C       1.76959561     -0.03578975      1.92936770
C       3.16859603     -0.17438412      2.34989607
N       4.28030747     -0.28761229      2.66028235
C      -0.72004405     -0.54368487      0.19312331
C      -2.13139368     -0.00377209     -0.09214103
C      -3.15968191     -0.66363854      0.78429636
O      -4.07223472     -0.10004377      1.36527821
O      -3.04238046     -2.00229265      0.84473193
C      -0.50844828     -1.85369569     -0.57712537
O      -0.78745140     -2.07049294     -1.74630532
O       0.10260291     -2.80133062      0.16751434
H       2.10225043      2.20313880     -1.52324069
H       1.09322507      2.31434681     -2.95302393
H       0.95543641      0.03045938     -2.11458258
H      -0.59224415      0.84531938     -1.99201755
H       2.01856782     -0.87369572     -0.05866305
H       2.42249171      0.81943652      0.08870427
H       1.20349615     -0.89897853      2.29429626
H       1.33594810      0.85924838      2.38909331
H      -0.68312421     -0.77292663      1.26393097
H      -2.44701460     -0.14205836     -1.13378863
H      -2.17019193      1.06950692      0.13430944
H      -3.80933455     -2.29189868      1.38622078
H       0.15268406     -3.57556110     -0.43443921
