32
CCCCC(CCC(=O)O)CC(=O)O
C       4.09617586     -0.24301576      0.31885391
C       3.01790277      0.10322688     -0.69564180
C       1.64120465      0.20906264     -0.03644063
C       0.56199055      0.55557519     -1.06752034
C      -0.86517489      0.71464554     -0.49441126
C      -1.39798084     -0.55743222      0.20354656
C      -1.41333909     -1.78929383     -0.70200528
C      -2.15144528     -2.94093313     -0.07717458
O      -3.01673285     -3.61404680     -0.61184473
O      -1.72500393     -3.23827070      1.16428618
C      -0.93825016      1.92600729      0.45863783
C      -2.34505209      2.42600018      0.66938600
O      -3.34515680      2.12123986      0.04372391
O      -2.41156986      3.32769411      1.66887199
H       3.88818652     -1.20412349      0.79984091
H       5.07114793     -0.31348384     -0.17344518
H       4.16319902      0.52374828      1.09725176
H       3.27272184      1.05258690     -1.18088829
H       2.99878021     -0.66607705     -1.47637133
H       1.67523161      0.97598140      0.74534016
H       1.40562041     -0.74333736      0.45082080
H       0.55373636     -0.21071550     -1.85218407
H       0.84013671      1.49015209     -1.57252124
H      -1.52008861      0.91619872     -1.35354658
H      -0.80869870     -0.76701999      1.10463399
H      -2.42054959     -0.37505544      0.55775286
H      -1.91624227     -1.54753757     -1.64544076
H      -0.40082616     -2.13120674     -0.93884669
H      -2.27016667     -4.01184734      1.42009547
H      -0.51461465      1.66460258      1.43501713
H      -0.36719057      2.76473335      0.04349344
H      -3.35795144      3.58194176      1.69672988
