49
C#CC1(O)CCC2C3CCC4=CC(=O)CCC4(O)C3CCC21C
C      -4.54457835      2.69015293     -1.55211359
C      -4.05143015      1.75499397     -0.98156044
C      -3.46380755      0.60564252     -0.27624852
O      -4.26533348      0.32841760      0.87612873
C      -3.45236437     -0.65406815     -1.13761390
C      -2.52574689     -1.59339750     -0.37571103
C      -1.46757840     -0.69648563      0.30776815
C      -0.04842927     -0.98397322     -0.25585507
C       0.49078481     -2.31145858      0.32937791
C       1.93198962     -2.60750269     -0.08360944
C       2.79054878     -1.41996632      0.26095994
C       3.76491751     -1.50474058      1.18252486
C       4.44144648     -0.28331368      1.68307324
O       5.38693484     -0.38972588      2.45872653
C       3.86428979      1.05365678      1.28454819
C       3.39218196      1.00196518     -0.15803135
C       2.37697269     -0.12998138     -0.41930646
O       2.38416928     -0.36131059     -1.83253649
C       0.91711555      0.20302476      0.01003432
C       0.38565067      1.48420969     -0.66962829
C      -1.11875225      1.48095783     -0.95434609
C      -1.96520094      0.77855770      0.13359341
C      -1.84706276      1.56526087      1.45839390
H      -4.97865764      3.52351263     -2.05514112
H      -5.19148912      0.31985865      0.57979753
H      -4.44578822     -1.10239749     -1.25099565
H      -3.05348946     -0.46201636     -2.14069880
H      -2.10348628     -2.35008371     -1.04398162
H      -3.09461738     -2.12914907      0.39455579
H      -1.46821840     -0.94504755      1.37819023
H      -0.12284991     -1.11645252     -1.34512581
H      -0.14457663     -3.14791090      0.01618308
H       0.43811444     -2.27429815      1.42599582
H       2.27524525     -3.51329701      0.43022837
H       1.98718466     -2.81851189     -1.15765092
H       4.04441152     -2.43248936      1.66894264
H       4.64588398      1.81459273      1.38393502
H       3.04859170      1.30545110      1.96982287
H       4.26948522      0.85445367     -0.80516547
H       2.98943062      1.97639661     -0.45454277
H       3.25053967     -0.73682703     -2.06686514
H       0.92334505      0.37909181      1.09513748
H       0.63015846      2.34297337     -0.03129918
H       0.89758525      1.67166977     -1.62115548
H      -1.44104823      2.52119494     -1.08682125
H      -1.27706192      0.99285247     -1.92446497
H      -2.26356340      2.57287727      1.35047911
H      -2.38140734      1.07000379      2.27638366
H      -0.81043947      1.67263660      1.78863022
