31
CCC(C)C(=O)N(C)c1ccccc1
C       3.11500713      0.21493168      0.65995373
C       1.90426084      0.95759048      0.10842761
C       1.21934040      0.27539400     -1.09126320
C       2.15853840      0.17404963     -2.29754618
C       0.66526279     -1.11332705     -0.71257034
O       1.14906590     -2.13870598     -1.20077304
N      -0.31038278     -1.16622554      0.28927141
C      -0.56160397     -2.47632345      0.88440537
C      -1.36701396     -0.21678138      0.41387843
C      -1.97515960      0.34995027     -0.71309899
C      -3.02712215      1.25907552     -0.57265287
C      -3.48792867      1.60331638      0.69575923
C      -2.90347177      1.03276126      1.82379544
C      -1.85367805      0.12147753      1.68311005
H       3.91783598      0.14833631     -0.07975182
H       2.85314427     -0.79740135      0.98170848
H       3.51315131      0.74799945      1.52967005
H       1.18444253      1.09111728      0.92380008
H       2.21960626      1.96600773     -0.18726330
H       0.39772577      0.91904341     -1.41232447
H       3.00004393     -0.50105542     -2.11143345
H       2.56035009      1.15747803     -2.56281531
H       1.61927557     -0.21402623     -3.16903424
H       0.37147634     -3.04593876      0.94890777
H      -0.97009133     -2.39123736      1.89434310
H      -1.26101997     -3.02613340      0.24590279
H      -1.66933551      0.06313928     -1.71616104
H      -3.49375869      1.68881238     -1.45554807
H      -4.30653729      2.31026425      0.80468784
H      -3.26194056      1.29851612      2.81505917
H      -1.39948321     -0.29210508      2.57955577
