6
BrC=CBr
Br     -2.19980615     -0.44239293      0.47812447
C      -0.58573361      0.00232642     -0.31890268
C       0.58573342     -0.00232649      0.31890281
Br      2.19980565      0.44239387     -0.47812458
H      -0.68213166      0.27012187     -1.36474266
H       0.68213235     -0.27012275      1.36474264
