24
O=C(O)C(O)(CO)CC(O)CO
O      -1.54407770     -0.32553516      2.23750724
C      -1.54568637      0.25512446      1.15822727
O      -1.99533258      1.51975901      1.00891641
C      -1.03365425     -0.41788580     -0.12833627
O      -0.79915107     -1.81724330      0.11008623
C      -2.11898450     -0.29431162     -1.21019951
O      -2.34116687      1.08015398     -1.54546084
C       0.28840903      0.24287009     -0.57525507
C       1.48331928     -0.11615430      0.31719712
O       1.86180715     -1.48535610      0.11341753
C       2.70949101      0.73904693     -0.02077876
O       3.80348101      0.34238302      0.80433675
H      -2.06132215      1.78309907      0.05729774
H      -1.16812127     -2.00825439      1.00171385
H      -3.06632076     -0.72370948     -0.86495007
H      -1.82240022     -0.83416216     -2.11666813
H      -2.93490363      1.07903204     -2.32326102
H       0.17236130      1.33276287     -0.61098185
H       0.51652692     -0.09840608     -1.59408333
H       1.24460624     -0.00196144      1.37999608
H       1.03458836     -2.01148995      0.14151718
H       3.01694101      0.59434775     -1.06173282
H       2.51580533      1.80216679      0.14870777
H       3.78378472     -0.63627625      0.78803855
