32
CC(=O)Oc1ccc(NC(=O)c2ccccc2)cc1
C      -6.76105184      0.25296571     -0.22504310
C      -5.34146258     -0.21673144     -0.34375098
O      -5.01175173     -1.30349796     -0.79829547
O      -4.50145640      0.78146638      0.14107303
C      -3.12600879      0.51738082      0.11108744
C      -2.31167483      1.45264507     -0.52023829
C      -0.92593442      1.26508601     -0.53665070
C      -0.35341322      0.15419406      0.08866568
N       1.03149334     -0.11254545      0.10571516
C       2.04724191      0.68957320     -0.38271844
O       1.93603555      1.81708527     -0.84827440
C       3.41259260      0.10211361     -0.27234014
C       3.64441507     -1.26529837     -0.47442150
C       4.93958689     -1.77585932     -0.36231254
C       6.00291038     -0.92526731     -0.05812527
C       5.77837290      0.43906427      0.12508331
C       4.48627641      0.95441965      0.01285845
C      -1.18973964     -0.76869593      0.73457419
C      -2.57482408     -0.58475961      0.75765739
H      -7.43218603     -0.52479221     -0.60059424
H      -6.90417180      1.15559898     -0.82428680
H      -7.00194509      0.44360638      0.82375457
H      -2.74348923      2.32424534     -1.00321069
H      -0.32006678      2.00457022     -1.05092816
H       1.30795387     -0.95742473      0.58803155
H       2.83627273     -1.93721215     -0.75020054
H       5.12344515     -2.83532562     -0.52455301
H       7.01137124     -1.32405978      0.02407865
H       6.60945608      1.10324268      0.34939960
H       4.31579676      2.02073683      0.14840749
H      -0.77667878     -1.64225257      1.23180296
H      -3.20736563     -1.30427202      1.26872210
