21
CC(C)c1ccccc1
C      -1.94869985      0.78280434     -1.06922875
C      -1.32419668     -0.36880671     -0.27747227
C      -2.02655018     -0.54772380      1.07077800
C       0.17277437     -0.18123763     -0.10639625
C       1.06034053     -1.11838037     -0.65676865
C       2.44073170     -0.96508399     -0.51124367
C       2.95248128      0.12650279      0.18605471
C       2.08451299      1.06535888      0.73820518
C       0.70394040      0.91317326      0.59336516
H      -1.87294624      1.73617851     -0.53506012
H      -3.01079413      0.59006054     -1.25560200
H      -1.45465986      0.90378913     -2.03974990
H      -1.49715589     -1.28695277     -0.85461238
H      -1.58827268     -1.37977681      1.63311586
H      -1.95401400      0.35069451      1.69333610
H      -3.09010615     -0.76546604      0.92460906
H       0.68257896     -1.97841345     -1.20522771
H       3.11605673     -1.69897353     -0.94296578
H       4.02657794      0.24541449      0.29905857
H       2.48153538      1.91794777      1.28273550
H       0.04586539      1.65889088      1.03306934
