65
CCCCC(CC)C(=O)OCC(C)(C)COC(=O)C(CC)CCCC
C       6.34153880     -3.09328703      0.67816399
C       5.33153933     -1.97009077      0.49940330
C       5.68728213     -0.75888792      1.36190878
C       4.63168012      0.35152084      1.32262140
C       4.35040517      0.96443186     -0.06150593
C       5.56831935      1.68375036     -0.66272348
C       5.31170755      2.18261025     -2.08067101
C       3.19303619      1.93891529      0.09770899
O       3.26162084      3.00618086      0.69115995
O       2.07766564      1.43395350     -0.49915793
C       0.87683605      2.22063224     -0.41598351
C      -0.28106107      1.36718358      0.14795936
C       0.04791543      0.92068910      1.58524080
C      -1.55609287      2.22782941      0.18239441
C      -0.48598811      0.12418166     -0.74902945
O      -1.57284078     -0.68948800     -0.27170556
C      -2.69636769     -0.72842063     -1.04140276
O      -2.85830292     -0.12004152     -2.09005283
C      -3.71808352     -1.66575798     -0.41564420
C      -3.52856423     -3.05099997     -1.05571484
C      -4.29295384     -4.15787871     -0.34438798
C      -5.14467121     -1.11646899     -0.59626220
C      -5.36739423      0.20032191      0.15887129
C      -6.80570216      0.69375864     -0.00007743
C      -7.03347695      1.99544882      0.75245410
H       7.34510582     -2.76792730      0.38661998
H       6.37719483     -3.42783947      1.71943164
H       6.06775678     -3.95037300      0.05549100
H       5.30597433     -1.69011872     -0.55910320
H       4.33406704     -2.33871766      0.76523316
H       6.66527963     -0.36341011      1.06512777
H       5.79459461     -1.08332520      2.40517928
H       4.94506665      1.14590090      2.01349060
H       3.69440668     -0.04711633      1.73462133
H       4.03489567      0.17264302     -0.75209718
H       6.42535754      1.00326330     -0.70105281
H       5.86154455      2.53412973     -0.03485477
H       5.02992178      1.35561770     -2.74057358
H       4.51487344      2.93194494     -2.10600080
H       6.21801847      2.64558690     -2.48490654
H       0.64194838      2.55032749     -1.43498025
H       1.01138538      3.12308095      0.19167087
H       0.91960241      0.25749833      1.61047954
H       0.26777182      1.78397230      2.22376560
H      -0.79076691      0.38084969      2.03879488
H      -1.39863867      3.14343472      0.76381103
H      -2.39268093      1.69157785      0.64253683
H      -1.85942068      2.52302579     -0.82822429
H      -0.62382856      0.42082653     -1.79577497
H       0.40390540     -0.51575926     -0.72517600
H      -3.50949238     -1.73033300      0.66060333
H      -3.82759597     -3.02399310     -2.11119600
H      -2.46274672     -3.31339559     -1.04677371
H      -4.03587595     -5.12928886     -0.77957117
H      -4.04248500     -4.18785354      0.72088657
H      -5.37456052     -4.02967287     -0.44331483
H      -5.87154255     -1.84838738     -0.22702089
H      -5.35945598     -0.96658559     -1.66195488
H      -5.14505999      0.05479812      1.22310413
H      -4.68174239      0.96981348     -0.21334122
H      -7.50376685     -0.06462689      0.37334732
H      -7.03010507      0.84768080     -1.06221001
H      -8.06518501      2.33464407      0.61833676
H      -6.85517764      1.86506640      1.82485313
H      -6.36659049      2.78295405      0.38675611
