25
COc1cc(C#N)c2c(c1OC)C(=O)OC2
C      -3.09446255     -1.42230616     -0.97916914
O      -2.36516383     -0.22871676     -0.72564403
C      -1.02478927     -0.34194646     -0.46388030
C      -0.34917250     -1.56084159     -0.26982231
C       1.03235422     -1.58543173     -0.01659251
C       1.71060221     -2.83255751      0.17264530
N       2.27516695     -3.83304776      0.33025320
C       1.71878571     -0.38203747      0.04298645
C       1.05364489      0.81475089     -0.13681817
C      -0.31005787      0.86589812     -0.37942955
O      -0.92874250      2.05853309     -0.63026060
C      -1.48107514      2.60144591      0.56866475
C       2.01808264      1.90407243     -0.01131233
O       1.80792349      3.09746224     -0.07020294
O       3.23346589      1.32036031      0.22322451
C       3.15243935     -0.11625409      0.27669669
H      -3.14564491     -2.04740450     -0.08191220
H      -2.66995299     -1.97527983     -1.82362529
H      -4.11709855     -1.13914708     -1.24628405
H      -0.88265635     -2.50729344     -0.31515074
H      -1.91184746      3.57764863      0.32709658
H      -2.28197381      1.96460467      0.95911814
H      -0.71061933      2.75030539      1.33311243
H       3.48312404     -0.44975248      1.26419430
H       3.78766769     -0.53306482     -0.50975108
