52
O=C(Nc1ccccc1SSc1ccccc1NC(=O)c1ccccc1)c1ccccc1
O      -0.88894512      2.62805686      0.26921495
C      -1.40856859      1.52630553      0.13400340
N      -1.14030229      0.60080975     -0.85736056
C      -0.18384367      0.69164259     -1.89641207
C       0.59382128      1.83414690     -2.11279848
C       1.55459900      1.86724382     -3.12786539
C       1.74387163      0.76274623     -3.94966022
C       0.97009059     -0.37956089     -3.75787076
C       0.00953567     -0.42740450     -2.73464912
S      -0.95243619     -1.93546662     -2.57770043
S       0.28134334     -3.11436878     -1.42771994
C      -0.46351675     -2.95454590      0.19783702
C      -1.53612139     -3.80720652      0.50332205
C      -2.15495322     -3.74536327      1.74960702
C      -1.69981795     -2.83857212      2.69921903
C      -0.62802282     -1.98984449      2.40772205
C      -0.00155979     -2.02980071      1.15863355
N       1.06480734     -1.16872911      0.80764327
C       1.57106544     -0.10379309      1.52828339
O       1.19882199      0.27725215      2.63122851
C       2.64574001      0.66043430      0.83367746
C       2.69491394      2.04926409      1.00624443
C       3.66968012      2.80205527      0.34940761
C       4.59963360      2.16998008     -0.47712682
C       4.56610130      0.78450979     -0.63807808
C       3.59562671      0.02638907      0.02104497
C      -2.41348604      1.08688911      1.14295379
C      -3.52704583      0.31116879      0.79187583
C      -4.43665334     -0.08571188      1.77532529
C      -4.24342091      0.29682674      3.10343355
C      -3.14234036      1.07783307      3.45357836
C      -2.23020404      1.47598669      2.47493092
H      -1.58801243     -0.30486083     -0.77453984
H       0.48536931      2.72338709     -1.49956888
H       2.15474572      2.76341832     -3.26903214
H       2.48927265      0.79316823     -4.74074750
H       1.12215779     -1.23362926     -4.41475036
H      -1.89542936     -4.52773735     -0.22756218
H      -2.98587460     -4.40634976      1.98228967
H      -2.17715669     -2.78233066      3.67492761
H      -0.30850209     -1.30090811      3.18387637
H       1.39830173     -1.27788463     -0.14324515
H       1.95738114      2.54794093      1.63415550
H       3.69685018      3.88142069      0.47781002
H       5.35518909      2.75864578     -0.99183681
H       5.29884070      0.29429957     -1.27502048
H       3.60440569     -1.05367902     -0.09638279
H      -3.71106101      0.02645542     -0.24046543
H      -5.29996733     -0.69007901      1.50545714
H      -4.95250894     -0.01195783      3.86789838
H      -2.98758711      1.37568733      4.48802553
H      -1.36482814      2.07582017      2.75431007
