26
O=C(O)/C(S)=C/C1CCCCC1
O       4.87995896     -0.51632330     -0.24173530
C       3.82336150     -0.18768510      0.27420074
O       3.81466906      0.40290719      1.48416183
C       2.46524164     -0.37871507     -0.32077338
S       2.44772108     -1.13951087     -1.88372835
C       1.34995424      0.01650386      0.32293073
C      -0.08836628     -0.10124036     -0.13374039
C      -0.88563032     -0.97294096      0.84992133
C      -2.36087059     -1.05230678      0.46147429
C      -2.98267127      0.33430727      0.32645707
C      -2.19571141      1.21156078     -0.64240005
C      -0.72018701      1.29481596     -0.25585103
H       4.76332390      0.45095703      1.72463528
H       3.77715763     -1.30038866     -2.01481229
H       1.45995586      0.48548355      1.30122477
H      -0.14864033     -0.57727965     -1.11903487
H      -0.46600452     -1.98620866      0.87951766
H      -0.80514725     -0.56800558      1.86753785
H      -2.45928030     -1.59104203     -0.48901648
H      -2.90912128     -1.63017240      1.21404013
H      -3.01487842      0.81678238      1.31111703
H      -4.01881688      0.24194874     -0.01798093
H      -2.62836636      2.21817407     -0.66243372
H      -2.28444476      0.80548126     -1.65757390
H      -0.18352707      1.88576274     -1.00848029
H      -0.62967982      1.83713458      0.69477633
