37
CCC(C)CN(C)N=Nc1ccc(C(=O)O)cc1
C      -2.99039072      0.47252584     -3.17008383
C      -2.27079914      1.08138081     -1.97442816
C      -2.64328002      0.48531373     -0.60081077
C      -4.10535000      0.76735500     -0.24236135
C      -2.36077242     -1.02588670     -0.48583554
N      -0.96830216     -1.38769009     -0.75714213
C      -0.72351554     -2.77226513     -1.14935142
N      -0.06455172     -0.77093328      0.08029341
N       1.11463840     -1.11348248     -0.13041833
C       2.02116173     -0.46809902      0.73402524
C       3.16048721     -1.17603968      1.13609391
C       4.12132027     -0.58542842      1.96386446
C       3.95712712      0.73438682      2.39906353
C       5.01604301      1.33071403      3.24945839
O       6.05933807      0.79184682      3.57110606
O       4.72189996      2.57824883      3.65508972
C       2.82646412      1.45599191      2.00122068
C       1.87274239      0.85903745      1.16797745
H      -2.66272497      0.96693639     -4.09069536
H      -4.07479632      0.59966554     -3.09483534
H      -2.77068044     -0.59389673     -3.27329225
H      -1.18922364      0.98371584     -2.13096824
H      -2.47715382      2.15947488     -1.95872317
H      -2.02848097      1.00922743      0.14264610
H      -4.30790958      0.47934248      0.79428237
H      -4.33280709      1.83370272     -0.33916055
H      -4.79641256      0.20972643     -0.88292968
H      -2.60245215     -1.38521570      0.52137300
H      -3.00120020     -1.57463938     -1.18579551
H       0.28903101     -2.89428685     -1.54291851
H      -0.87262301     -3.42003921     -0.28182778
H      -1.42323914     -3.04719175     -1.94463052
H       3.30238835     -2.19921085      0.79487225
H       5.00044421     -1.15608369      2.25845479
H       5.51105418      2.84552606      4.17267832
H       2.68242120      2.48638121      2.31826714
H       1.01010439      1.43988875      0.84810777
