25
C=CCCCCCCO
C       4.35050758      1.23496495      1.48682722
C       3.56390708      0.99318177      0.43069875
C       2.52138253     -0.08690217      0.38649186
C       1.12173027      0.49919905      0.19089825
C       0.06139701     -0.60256681      0.13596851
C      -1.33859754     -0.01846173     -0.06330266
C      -2.39899112     -1.12235843     -0.11402728
C      -3.80615774     -0.56225468     -0.28211308
O      -3.91772074      0.09921322     -1.53399096
H       5.09083337      2.02855204      1.45719043
H       4.27581006      0.65283832      2.39998533
H       3.68010522      1.60174422     -0.46407629
H       2.75957865     -0.76494301     -0.44175649
H       2.54567240     -0.68571292      1.30519694
H       1.08992037      1.08407240     -0.73715993
H       0.89068805      1.18906216      1.01252653
H       0.29132607     -1.29303567     -0.68462799
H       0.08791909     -1.18420086      1.06547731
H      -1.36105471      0.56401069     -0.99205209
H      -1.56825113      0.67215315      0.75723639
H      -2.35764704     -1.71582901      0.80658637
H      -2.17348151     -1.79208860     -0.95281126
H      -4.04317310      0.14877805      0.51578924
H      -4.53815685     -1.37564443     -0.25672930
H      -4.82754628      0.43622831     -1.59862276
