23
Clc1ccc(Cl)c(Oc2ccccc2)c1Cl
Cl      3.97194222      2.55117040      1.35345852
C       3.08932060      1.19789979      0.73778123
C       3.64438252      0.51164016     -0.34734742
C       2.99036760     -0.59733550     -0.88556873
C       1.77272329     -1.01805403     -0.34854494
Cl      1.03447862     -2.42507230     -1.02364316
C       1.19542365     -0.31538437      0.71896701
O       0.01229170     -0.74457564      1.27803910
C      -1.16193459     -0.41206659      0.63344977
C      -2.26032662     -1.21764144      0.94589115
C      -3.50426276     -0.97032623      0.36415638
C      -3.65629759      0.09062671     -0.52640711
C      -2.56664981      0.90574608     -0.83108023
C      -1.31984487      0.65936096     -0.25019691
C       1.86654563      0.78229215      1.28400851
Cl      1.16782485      1.60724316      2.64068571
H       4.59425408      0.83021154     -0.77229372
H       3.44004017     -1.13437354     -1.71816672
H      -2.14515312     -2.04515067      1.64127370
H      -4.35297850     -1.60414802      0.60717649
H      -4.62510570      0.28570388     -0.97919372
H      -2.68931640      1.73887755     -1.51861415
H      -0.49772499      1.32335594     -0.49521435
