23
Clc1cc(Cl)cc(Oc2ccc(Cl)c(Cl)c2Cl)c1
Cl      4.65355367     -0.63636430      2.13990048
C       3.40454156     -0.42634059      0.97536452
C       3.67488038      0.25035802     -0.21183109
C       2.65918712      0.40750359     -1.15256493
Cl      2.98631730      1.22890565     -2.62895287
C       1.38055926     -0.09530489     -0.91350796
C       1.11625609     -0.75057402      0.29153163
O      -0.10918816     -1.30236367      0.59370206
C      -1.22455317     -0.54260976      0.30898204
C      -1.39109310      0.70394706      0.91967550
C      -2.53953435      1.44936268      0.66422919
C      -3.52955540      0.94664990     -0.18706655
Cl     -4.92003160      1.94380576     -0.44627563
C      -3.38060543     -0.31464220     -0.78790981
Cl     -4.61907380     -0.93318711     -1.83790991
C      -2.22156726     -1.06628595     -0.52984398
Cl     -1.97840616     -2.63131301     -1.24128674
C       2.13211868     -0.93476013      1.23002132
H       4.66899081      0.64375118     -0.40577766
H       0.60857307      0.01381162     -1.66968204
H      -0.63599809      1.09380289      1.59848445
H      -2.66241690      2.42191331      1.13721921
H       1.92704548     -1.47006604      2.15349878
