37
CC(C)OC(=O)c1cc(-c2nn(C)c(C(F)(F)F)c2Br)c(F)cc1Cl
C      -5.09755684     -1.63264662     -0.89755276
C      -4.56749051     -0.70445882      0.18818206
C      -5.59374271      0.37047458      0.52795855
O      -3.37431321     -0.08639367     -0.32775858
C      -2.49507146      0.36593980      0.59552513
O      -2.57244086      0.26552650      1.80758777
C      -1.32603451      0.93456742     -0.09363740
C      -0.07279985      0.38986946      0.22552769
C       1.08778975      0.88257710     -0.38579622
C       2.38054322      0.29691871     -0.06121828
N       2.55775030     -1.03088581     -0.15878356
N       3.83872224     -1.23472207      0.20178882
C       4.35512641     -2.58694473      0.19099432
C       4.49894625     -0.08885474      0.54818288
C       5.90099481     -0.10370519      0.98488233
F       6.47217136      1.12306277      1.01279649
F       6.66880244     -0.87064689      0.16831915
F       6.02149696     -0.62741800      2.23033734
C       3.56750198      0.91272666      0.40743985
Br      3.77724689      2.73376365      0.80843837
C       0.97002765      1.91365477     -1.32120124
F       2.05120370      2.38482015     -1.95980356
C      -0.26933632      2.47278074     -1.62768923
C      -1.42350745      1.99004425     -1.00752883
Cl     -2.91665626      2.77245571     -1.38125596
H      -6.01088151     -2.14186210     -0.57528850
H      -4.34695251     -2.38929962     -1.15066522
H      -5.30923589     -1.07968615     -1.81953250
H      -4.33432321     -1.30464413      1.07617893
H      -5.21439732      1.04004621      1.30672392
H      -6.52941590     -0.07325584      0.88165991
H      -5.80949017      0.99594294     -0.34531155
H      -0.00358359     -0.42400436      0.94710883
H       4.98419128     -2.70257065     -0.69468972
H       3.52068389     -3.29249874      0.15402896
H       4.93119753     -2.75472570      1.10381061
H      -0.31716658      3.28405239     -2.34852438
