38
CC(C)OC(=O)C(O)(c1ccc(Cl)cc1)c1ccc(Cl)cc1
C       3.13111563      2.33482867     -0.17787774
C       3.25356108      0.91002672      0.34998047
C       4.14236068      0.86742787      1.58682285
O       1.95414455      0.43206600      0.74667876
C       1.17473206     -0.10428027     -0.25154108
O       1.51158703     -0.15850659     -1.42846928
C      -0.21130412     -0.53293705      0.33858278
O       0.00498222     -0.90003462      1.72094580
C      -1.22476860      0.62817513      0.36579876
C      -2.34737790      0.55207780      1.21652028
C      -3.29561358      1.57744964      1.25815440
C      -3.14113435      2.69292845      0.44229326
Cl     -4.30562664      3.95777235      0.48987213
C      -2.05043790      2.78763543     -0.41745322
C      -1.10064474      1.76115605     -0.45993973
C      -0.76877656     -1.75750351     -0.41000887
C      -1.21639343     -1.64400608     -1.74159350
C      -1.72243561     -2.75014979     -2.43108934
C      -1.78717095     -3.98853907     -1.80084830
Cl     -2.41030497     -5.34979994     -2.64809900
C      -1.34794259     -4.13080296     -0.48857258
C      -0.84112786     -3.02429321      0.20035013
H       2.49746367      2.36811013     -1.06998901
H       4.11116243      2.74673639     -0.43731224
H       2.65989242      2.98816375      0.56480361
H       3.68850914      0.25331314     -0.41305928
H       3.72582924      1.48205705      2.39263992
H       5.15382642      1.21964064      1.36276262
H       4.20669981     -0.15545669      1.97358761
H       0.53137050     -0.17078706      2.09914428
H      -2.48918376     -0.32046755      1.85439702
H      -4.15010026      1.49425512      1.92449680
H      -1.93520066      3.65466660     -1.06328067
H      -0.27438977      1.86614113     -1.16099104
H      -1.16738791     -0.68947701     -2.26308289
H      -2.05940359     -2.63614888     -3.45794575
H      -1.39537090     -5.09686860      0.00677040
H      -0.50514023     -3.16456918      1.22655164
