48
C=CC1CN2CCC1CC2C(O)c1ccnc2ccc(OC)cc12
C       4.91443077     -1.72376172     -1.50923237
C       3.89225869     -0.94074097     -1.14046278
C       3.60809780     -0.54112284      0.28854109
C       3.55744591      1.00088787      0.46771525
N       2.25873837      1.45709645      1.03734861
C       2.09246332      0.82238400      2.36697745
C       2.14815972     -0.71086423      2.29030520
C       2.28195036     -1.14203163      0.81866648
C       1.06987370     -0.53948343      0.08301467
C       1.17331006      0.99941537      0.09847872
C      -0.17748415      1.72425842      0.39840795
O       0.10270760      3.12707210      0.56294615
C      -1.20087374      1.56718214     -0.71281793
C      -1.02582435      2.31539960     -1.88682614
C      -1.92303073      2.16244599     -2.92230365
N      -2.97028568      1.31865612     -2.88239068
C      -3.16111041      0.60301688     -1.76446873
C      -4.25111487     -0.25443162     -1.73462388
C      -4.54712454     -1.04827816     -0.62263695
C      -3.73446248     -0.98562543      0.49854280
O      -3.89577604     -1.69740650      1.65412720
C      -5.02663134     -2.55762591      1.72591831
C      -2.63120395     -0.12704286      0.48755921
C      -2.31236554      0.68045917     -0.63446031
H       5.61413494     -2.13293251     -0.78699567
H       5.07126664     -1.97595893     -2.55396117
H       3.22653283     -0.56053815     -1.91322625
H       4.42216365     -0.91954576      0.92348083
H       4.36950980      1.31845828      1.13532593
H       3.74405406      1.52768736     -0.47717005
H       2.87515654      1.18660188      3.04452127
H       1.14958191      1.14199791      2.82514680
H       2.99723708     -1.08705559      2.87336651
H       1.23967398     -1.13961731      2.73005291
H       2.27835621     -2.23494788      0.74030251
H       0.15492822     -0.88514647      0.57487086
H       1.02758669     -0.89998142     -0.95107128
H       1.48274314      1.33035055     -0.90373659
H      -0.58268002      1.40238087      1.35979638
H       0.99548183      3.14486410      0.96724200
H      -0.20421143      3.01895388     -1.98540901
H      -1.81961329      2.73196781     -3.84120564
H      -4.89594544     -0.30640256     -2.60967325
H      -5.41617446     -1.69482812     -0.67386307
H      -5.95990745     -1.99183447      1.63629809
H      -5.02041509     -3.03612854      2.70999380
H      -4.96868717     -3.34831071      0.97062394
H      -2.02292165     -0.09989303      1.38678192
