25
Nc1ccc2c(O)cccc2c1S(=O)(=O)O
N      -2.87702143      1.69864430     -0.57265132
C      -1.55815062      1.30225957     -0.30347517
C      -0.56895923      2.27820335     -0.43131071
C       0.78152068      1.95682989     -0.31689548
C       1.20909351      0.63357410     -0.12561373
C       2.58489082      0.32704340     -0.02755302
O       3.50437810      1.34469653     -0.09449652
C       3.03703775     -0.97869418      0.13177849
C       2.11248996     -2.00839232      0.18767073
C       0.74641535     -1.72601471      0.09552116
C       0.24368527     -0.40237719     -0.04942514
C      -1.14376160     -0.03697412     -0.14055342
S      -2.38294506     -1.30699671      0.02535075
O      -3.66458740     -0.69762858      0.33153018
O      -2.23766903     -2.24047361     -1.06934870
O      -2.00714768     -2.08429468      1.39083456
H      -3.60201043      1.06867998     -0.21494661
H      -3.08659152      2.66967571     -0.36225489
H      -0.83994078      3.31338741     -0.62751269
H       1.51331950      2.75890810     -0.40489109
H       4.39711390      0.96622189     -0.04328212
H       4.09490626     -1.20919837      0.20446470
H       2.44469039     -3.03789651      0.29791656
H       0.07758918     -2.58423046      0.12795993
H      -2.77834587     -2.00495278      1.99118353
