53
CC(C)CCCCCCCO.O=C(O)CC(C(=O)O)S(=O)(=O)O.[Na+].[Na+]
C      -4.33614783      0.43534146     -0.10125825
C      -3.29035466     -0.25355941      0.77681993
C      -3.76163120     -1.66871909      1.12251202
C      -1.90349727     -0.31501145      0.10741028
C      -1.27689725      1.06420372     -0.12385830
C       0.10891005      1.00062107     -0.77543995
C       1.18266145      0.39197591      0.12941995
C       2.56472419      0.46759453     -0.52385298
C       3.63832984     -0.14247371      0.37475880
C       5.01679785     -0.07026349     -0.26885054
O       5.98702900     -0.63098220      0.60540189
O       1.66286333     -0.54390527      1.15715546
C       1.67452180     -0.41534620     -0.05487274
O       2.75770526      0.04178476     -0.70018953
C       0.54742092     -0.76460657     -0.98065319
C      -0.78066069     -0.19521261     -0.50552080
C      -1.19025331     -0.68824258      0.84704588
O      -1.36610716     -0.02779128      1.85864269
O      -1.36847886     -2.02691916      0.87115776
S      -0.82201110      1.58564612     -0.51788326
O      -2.16736499      2.03000715     -0.22959209
O      -0.11213254      2.05832659     -1.68589745
O       0.08133291      1.91817213      0.77947651
Na      0.00000000      0.00000000      0.00000000
Na      0.00000000      0.00000000      0.00000000
H      -5.32499252      0.39455300      0.36845581
H      -4.40900676     -0.04485273     -1.08288961
H      -4.09640809      1.49167191     -0.25423176
H      -3.20390614      0.30958098      1.71471355
H      -3.04796967     -2.16536363      1.78841693
H      -4.72985365     -1.64298061      1.63376245
H      -3.86969191     -2.28280170      0.22189977
H      -1.97711443     -0.84696964     -0.84958318
H      -1.24067317     -0.90841801      0.74764669
H      -1.21193297      1.60719764      0.82661872
H      -1.92267296      1.65389228     -0.78383166
H       0.04933910      0.43547985     -1.71353726
H       0.40603815      2.02282955     -1.04148225
H       1.20075398      0.92401795      1.08817217
H       0.94618973     -0.65614140      0.34283609
H       2.81485081      1.51437604     -0.73515788
H       2.54595009     -0.06098272     -1.48472261
H       3.66267831      0.37361286      1.34262472
H       3.39509350     -1.18859973      0.59874181
H       5.30104574      0.96804812     -0.46593144
H       5.04424670     -0.61927566     -1.21559501
H       5.73811199     -1.55760165      0.76347576
H       3.40224795      0.27220430      0.00216083
H       0.50977975     -1.85797343     -1.04674207
H       0.77716184     -0.39377817     -1.98620225
H      -1.56777046     -0.48934065     -1.21166968
H      -1.59836297     -2.23735843      1.80327940
H      -0.43989167      1.73433331      1.60030454
