19
ClCCOCOCCCl
Cl      4.11589507     -0.56753119     -0.19440791
C       2.85053153      0.53339304      0.40762284
C       1.66147260     -0.23942535      0.97356082
O       0.99363181     -1.08098529      0.03049868
C       0.26467680     -0.37827835     -0.96691870
O      -0.79302005      0.39860226     -0.41955388
C      -1.85744625     -0.42358799      0.06647713
C      -2.98090056      0.45338939      0.60419188
Cl     -3.85278975      1.26852490     -0.72240298
H       2.56437900      1.18198816     -0.42314456
H       3.30219694      1.15358075      1.18740963
H       0.94172341      0.45577156      1.42069586
H       2.00630529     -0.89011610      1.78535655
H      -0.13440699     -1.10709910     -1.68150756
H       0.92632930      0.28312547     -1.53312357
H      -1.47731186     -1.04748865      0.88328118
H      -2.22559034     -1.07920708     -0.73149035
H      -3.71313880     -0.14936277      1.14823871
H      -2.59253714      1.23470635      1.26371587
