38
NS(=O)(=O)c1cc2c(cc1Cl)CN(C1CCCCC1)C2=O
N      -5.74807727      1.39161268      0.39690050
S      -5.65793142     -0.13729550     -0.30159949
O      -6.33647288     -1.00524321      0.63095597
O      -6.08409369      0.05889274     -1.66663788
C      -3.94101338     -0.53755312     -0.29864911
C      -3.01328849      0.37583190      0.22195409
C      -1.68177357      0.00803755      0.19979763
C      -1.24240899     -1.20809217     -0.31485018
C      -2.15203272     -2.11378291     -0.83235364
C      -3.51628346     -1.77636829     -0.82329315
Cl     -4.60174688     -2.94822657     -1.48230057
C       0.24411761     -1.30083112     -0.21099286
N       0.59192692     -0.06164130      0.47195953
C       1.96483608      0.41299889      0.63216923
C       2.92942798     -0.69708031      1.07028650
C       4.35183827     -0.16734493      1.23670698
C       4.84530510      0.52038572     -0.03304779
C       3.89106732      1.62226951     -0.48429986
C       2.46384797      1.10397936     -0.64638941
C      -0.51070054      0.75902388      0.66419891
O      -0.55251208      1.88938269      1.10822033
H      -6.29815091      1.33721126      1.25625841
H      -6.12907905      2.05109602     -0.28423684
H      -3.29743414      1.33927782      0.63213491
H      -1.81705508     -3.06482378     -1.23774291
H       0.70926822     -1.31996268     -1.20040918
H       0.55546836     -2.15306832      0.39872806
H       1.93916655      1.17308796      1.42507753
H       2.93874075     -1.50836697      0.33159011
H       2.58858913     -1.13688794      2.01527679
H       5.02475981     -0.99319467      1.49356973
H       4.38243148      0.54202882      2.07282475
H       5.84123373      0.94338556      0.14008405
H       4.94826164     -0.22263839     -0.83349375
H       4.23915772      2.04536583     -1.43333397
H       3.90103177      2.43647719      0.25079103
H       1.80198500      1.93847954     -0.90791848
H       2.42759313      0.40357726     -1.49040075
