22
O=C1OCc2ccc3ccccc3c21
O      -1.06717032      3.03808742      0.58481163
C      -1.56673535      1.96127839      0.32790799
O      -2.90836475      1.72405666      0.20169446
C      -3.18911835      0.34772639     -0.10643098
C      -1.85023148     -0.26810324     -0.16151571
C      -1.50526416     -1.58080214     -0.42075785
C      -0.15006353     -1.91925611     -0.41603001
C       0.85094206     -0.95641625     -0.15499558
C       2.20819183     -1.31623897     -0.15468253
C       3.20187949     -0.37076161      0.10226241
C       2.85372263      0.94966994      0.36297113
C       1.51067269      1.32858114      0.36750570
C       0.48918810      0.38833506      0.11010751
C      -0.88173747      0.68653218      0.09593685
H      -3.80736843     -0.07398988      0.69080463
H      -3.70795763      0.29943111     -1.06775032
H      -2.25975349     -2.33513846     -0.62357875
H       0.13048938     -2.95192255     -0.61945472
H       2.50570346     -2.34338629     -0.35597991
H       4.24792951     -0.66648722      0.09860163
H       3.62518534      1.68900640      0.56358343
H       1.26986046      2.36979804      0.57498901
