39
CN(C)c1ccc2nc3ccc(N(C)C)cc3[s+]c2c1.[Cl-]
C       5.27323539      1.36601957      1.49416149
N       5.10321886      0.67271931      0.21751949
C       6.28072488     -0.04293002     -0.27266455
C       3.83170761      0.22190941     -0.14904146
C       3.63136110     -0.67258008     -1.20857653
C       2.35066673     -1.11323338     -1.58747438
C       1.20344715     -0.68849743     -0.95027862
N       0.03565092     -1.18471927     -1.40344114
C      -1.15718156     -0.84893600     -0.87453838
C      -2.27394981     -1.43614386     -1.43180706
C      -3.57599454     -1.16727961     -0.97321322
C      -3.83011334     -0.27484050      0.07647434
N      -5.12287141     -0.01957820      0.54333217
C      -6.26695610     -0.41473097     -0.27756821
C      -5.34806916      1.12084487      1.43108617
C      -2.69304970      0.30904578      0.65398422
C      -1.38807544      0.03748356      0.19170379
S      -0.02600456      0.86419741      1.01501955
C       1.38024674      0.22272359      0.10534424
C       2.66369113      0.66664155      0.48759469
Cl      0.00000000      0.00000000      0.00000000
H       4.69610919      2.29655229      1.51963678
H       6.31772047      1.65706417      1.65308120
H       4.97760648      0.72524463      2.33222886
H       6.27288834     -1.08703229      0.05921769
H       7.20622562      0.41393687      0.09563171
H       6.34197043     -0.00378761     -1.36550229
H       4.46717131     -1.05947049     -1.78384765
H       2.26265613     -1.81257664     -2.41663303
H      -2.14382378     -2.13637563     -2.25465159
H      -4.38437743     -1.69183031     -1.47377509
H      -6.24274511      0.08458600     -1.25248109
H      -7.21416890     -0.15006278      0.20581913
H      -6.29669683     -1.50029539     -0.41985637
H      -4.79553162      1.00729372      2.36992691
H      -5.06142104      2.06012054      0.94534953
H      -6.40379798      1.20337815      1.71311322
H      -2.79447947      0.99560306      1.48902606
H       2.72300928      1.37953597      1.30442251
