27
Cc1ccc2cc3ccccc3cc2c1
C      -4.53482313     -0.21438276     -0.13884883
C      -3.09225510      0.19280596     -0.19182955
C      -2.72059509      1.41486467     -0.75707054
C      -1.37383990      1.77747018     -0.83341630
C      -0.36979253      0.92083845     -0.35604981
C       0.98847942      1.27296521     -0.42669702
C       1.99305498      0.41324463      0.04764418
C       3.35149820      0.76424679     -0.02232828
C       4.33826033     -0.10090097      0.45291383
C       3.98009020     -1.32730760      1.00382083
C       2.63460494     -1.69044404      1.08035161
C       1.62971929     -0.83073902      0.60645093
C       0.27128643     -1.18206367      0.67660621
C      -0.73359793     -0.32166716      0.20320413
C      -2.09323282     -0.67295193      0.27341631
H      -4.80111719     -0.76679908     -1.04518029
H      -4.72965401     -0.84784316      0.73291745
H      -5.18601356      0.66202925     -0.05462588
H      -3.47637950      2.09570993     -1.14202456
H      -1.11370792      2.73754125     -1.27349773
H       1.26828114      2.23194572     -0.85856540
H       3.65118179      1.71855091     -0.44959648
H       5.38529551      0.18400689      0.39226711
H       4.74670005     -2.00260465      1.37451804
H       2.37441310     -2.65325783      1.51434894
H      -0.00882633     -2.14132992      1.10767360
H      -2.37903036     -1.63392807      0.69735746
