42
O=C1C(O)C2CC3N1CCC31c3ccccc3N3C(=O)C=CC2C31
O      -3.49903994      1.91939816     -1.25452900
C      -2.79797624      1.33175743     -0.43025176
C      -3.22557440     -0.04857920      0.10210601
O      -4.04933266      0.08792896      1.25400169
C      -2.00229762     -0.93030340      0.42709261
C      -1.16914885     -0.17496241      1.45588070
C      -0.61946906      1.06780480      0.78270836
N      -1.61745249      1.86795996      0.07761762
C      -0.89607202      2.79809738     -0.76617024
C       0.20073485      1.91386807     -1.36713705
C       0.41130639      0.77804570     -0.32999796
C       1.81543446      0.67284272      0.21977487
C       2.63098562      1.68575849      0.70770285
C       3.87493994      1.34103529      1.23989877
C       4.28323891      0.00011042      1.29024208
C       3.45634928     -1.01565697      0.80388801
C       2.23298847     -0.66266638      0.26373996
N       1.24121262     -1.49044119     -0.28005712
C       1.26791415     -2.86116586     -0.38543508
O       2.18426337     -3.60796202     -0.06208332
C       0.00816446     -3.45893896     -0.91097149
C      -1.11338729     -2.74435113     -1.09120228
C      -1.19245062     -1.25173910     -0.86445066
C       0.22751618     -0.64305448     -0.93405030
H      -3.82463682     -0.54051946     -0.67370211
H      -4.78566584      0.67426219      0.99731207
H      -2.36724183     -1.85074786      0.90214705
H      -0.36581328     -0.80409233      1.85390814
H      -1.78385816      0.10878273      2.31876292
H      -0.18653861      1.72392704      1.55000301
H      -1.51667967      3.26930148     -1.53305243
H      -0.46310449      3.57486435     -0.12600561
H      -0.16047363      1.50301007     -2.31796853
H       1.09999192      2.49769165     -1.58710825
H       2.31572620      2.72444235      0.69434828
H       4.53186204      2.11605599      1.62861745
H       5.25226708     -0.25401451      1.71382013
H       3.78404438     -2.04890179      0.85021340
H       0.03678180     -4.53080604     -1.07333283
H      -2.01564109     -3.25268116     -1.42373300
H      -1.73822583     -0.85094013     -1.73003722
H       0.53435831     -0.63442088     -1.99250975
