8
ClC(Br)CBr
Cl      1.58661579     -0.78603381     -1.31299523
C       0.68031382     -0.25920251      0.12744076
Br      1.63401385      1.25760393      0.90811716
C      -0.73255152      0.13066557     -0.25816912
Br     -1.88055945      0.26416837      1.31962751
H       0.71678013     -1.06600100      0.86491971
H      -0.79470020      1.09456720     -0.77215371
H      -1.20991241     -0.63576775     -0.87678708
