49
CCCOP(=S)(OCCC)OP(=S)(OCCC)OCCC
C      -2.52547962     -3.78747707      1.16265744
C      -1.55432363     -2.62054713      1.14783279
C      -1.46140938     -1.97609277     -0.22756209
O      -0.52828328     -0.90921770     -0.15953058
P      -0.62170156      0.26950713     -1.25865066
S      -0.53931336     -0.23931269     -3.12470049
O      -2.00036472      0.98577329     -0.79277088
C      -2.37836645      2.20193601     -1.41956028
C      -3.47165777      2.85233872     -0.58316320
C      -3.94796417      4.15809174     -1.19281894
O       0.44866316      1.32262373     -0.72255586
P       1.97122086      1.05906934     -0.32659714
S       3.08205108      2.64444401     -0.30237160
O       1.84866410      0.24864019      1.06536997
C       1.27251118      0.90113122      2.18584653
C       1.04547492     -0.13266296      3.27916801
C       0.41079688      0.48268946      4.51293103
O       2.40201662     -0.10584820     -1.35268422
C       3.62776524     -0.78667070     -1.14360253
C       3.83680366     -1.80168223     -2.26153000
C       3.99134564     -1.13384646     -3.62098949
H      -2.60187285     -4.20548990      2.17153328
H      -3.52626137     -3.47249084      0.84804054
H      -2.18894623     -4.58410065      0.49098342
H      -0.56057821     -2.96144736      1.45874893
H      -1.86213224     -1.87022276      1.88427642
H      -1.10861612     -2.70360917     -0.96641051
H      -2.44307342     -1.60387138     -0.54048676
H      -2.74876572      1.98396994     -2.42604880
H      -1.51252798      2.86818346     -1.49765773
H      -3.09981851      3.03010661      0.43309450
H      -4.31620917      2.16062646     -0.47820654
H      -4.72497724      4.60848151     -0.56734743
H      -3.12469937      4.87418295     -1.27962938
H      -4.36784960      3.99444483     -2.18980181
H       0.32148525      1.36202186      1.89637929
H       1.95194237      1.68436048      2.53743384
H       0.40741311     -0.93822741      2.89669376
H       1.99797553     -0.60679168      3.54596989
H       1.06449789      1.24207246      4.95326245
H       0.22439742     -0.28670753      5.26685596
H      -0.54616037      0.95492318      4.26753362
H       3.59022378     -1.30455549     -0.18052293
H       4.45419879     -0.07061941     -1.12342406
H       4.73119417     -2.39792921     -2.04933174
H       2.98097987     -2.48578919     -2.30417487
H       4.17758541     -1.88717354     -4.39405840
H       4.83369908     -0.43500608     -3.61927783
H       3.08844633     -0.58222912     -3.89914492
