29
NC(=O)c1ncn([C@@H]2O[C@H](CO)[C@@H](O)[C@H]2O)n1
N       4.19581923      2.68346209     -0.59723046
C       2.85443321      2.59575524     -0.32488491
O       2.23062575      3.56895950      0.08930710
C       2.27758958      1.26037441     -0.57424143
N       3.04002954      0.19812869     -1.04522220
C       2.17579523     -0.78548647     -1.13458030
N       0.94650815     -0.35116029     -0.74916567
C      -0.28117987     -1.13291940     -0.70167308
O      -1.36880530     -0.33665078     -1.22612890
C      -2.40256871     -0.25655755     -0.22240209
C      -2.37878996      1.12862934      0.43494357
O      -1.25266452      1.29936298      1.28373781
C      -2.14445696     -1.41098890      0.74300670
O      -2.70790803     -2.63646239      0.22666706
C      -0.63277088     -1.57171885      0.71879940
O      -0.25007282     -2.92981938      0.97164718
N       0.98438244      0.94628565     -0.36585502
H       4.69697606      1.86458289     -0.92022908
H       4.67313652      3.55661310     -0.43585546
H       2.37919879     -1.79663570     -1.46019503
H      -0.14449389     -1.98842639     -1.37346637
H      -3.35637161     -0.37945413     -0.74708615
H      -3.27237064      1.25750755      1.05354997
H      -2.36291183      1.92195014     -0.31965910
H      -0.48058638      1.49988135      0.70270123
H      -2.54944453     -1.26313881      1.74815746
H      -3.67762495     -2.53181779      0.23047023
H      -0.15142693     -0.94579496      1.47644409
H      -1.04004668     -3.46446113      0.73760906
