38
CCN(CC)CCNC(=O)c1ccc(N)cc1
C      -3.16330765     -0.58238521     -2.39253165
C      -3.26032691      0.53726731     -1.36084968
N      -2.31932021      0.34040647     -0.24233662
C      -2.82156850     -0.67104933      0.70604167
C      -1.69177269     -1.26356730      1.54464032
C      -2.07405622      1.63318093      0.45323116
C      -0.97560226      2.45191351     -0.25287639
N       0.24453549      1.67361303     -0.39307697
C       1.13573325      1.58367813      0.65737780
O       1.06696183      2.27980715      1.66462097
C       2.19107396      0.53900952      0.53760486
C       2.63360816      0.06580454     -0.70221143
C       3.62512945     -0.92013987     -0.76139016
C       4.21952974     -1.40981641      0.40485240
N       5.12021899     -2.47832608      0.34101559
C       3.74006264     -0.96653296      1.63967232
C       2.75141316      0.01993446      1.70919959
H      -3.79761270     -0.34931904     -3.25433201
H      -2.13569472     -0.69354764     -2.75498540
H      -3.49361503     -1.54561041     -1.99404668
H      -3.02740559      1.46677587     -1.89340020
H      -4.29187521      0.63461313     -0.99971035
H      -3.27796661     -1.51088018      0.17119520
H      -3.60282279     -0.25511733      1.35458834
H      -2.08000050     -2.07250482      2.17243748
H      -0.90823970     -1.68408497      0.90493565
H      -1.23196138     -0.52561062      2.20788214
H      -1.73285122      1.46009633      1.48018008
H      -2.99685917      2.22152074      0.53380398
H      -0.76636479      3.36363179      0.31704287
H      -1.28464824      2.74736913     -1.26000661
H       0.13473682      0.84612040     -0.96669015
H       2.22808382      0.45737113     -1.63035900
H       3.93579915     -1.29825460     -1.73201656
H       5.64604898     -2.52317090     -0.52614364
H       5.71845659     -2.55978237      1.15748122
H       4.13465355     -1.38200623      2.56317555
H       2.40782650      0.36959271      2.68051836
