27
CC(C)C(=O)OOC(C)(C)C
C      -2.55575386     -1.10043142     -0.16929989
C      -2.46511565      0.38593843      0.15603092
C      -3.57670572      1.16553693     -0.54172465
C      -1.10022346      0.91813407     -0.24513493
O      -0.87669910      1.58297560     -1.24854154
O      -0.17075844      0.51391535      0.68153100
O       1.11687430      1.09066445      0.29210280
C       2.04058094      0.01226755      0.06860760
C       2.22477105     -0.80758524      1.35016458
C       1.58439697     -0.87306759     -1.09562850
C       3.37172254      0.67867073     -0.29905307
H      -1.78891365     -1.66804081      0.36884017
H      -3.53320948     -1.50416557      0.11413437
H      -2.40672669     -1.28222490     -1.23952663
H      -2.58081915      0.53755225      1.23642062
H      -3.52835698      1.04606134     -1.62984018
H      -4.56129600      0.82323736     -0.20641031
H      -3.49781577      2.23601934     -0.32274165
H       2.48635280     -0.15822655      2.19323558
H       3.01004909     -1.56203177      1.23399564
H       1.30104334     -1.32601569      1.62978053
H       0.65584240     -1.40235369     -0.85705549
H       1.38317551     -0.27044941     -1.98832357
H       2.34035040     -1.62474511     -1.34664774
H       3.26081060      1.30264236     -1.19355355
H       4.15779955     -0.05997216     -0.48767711
H       3.70862446      1.34569415      0.50302271
