26
Cn1cnc2c1c(=O)n(CC(=O)[O-])c(=O)n2C
C      -1.94887112      2.81469126      0.23610283
N      -1.90341538      1.37678523      0.17452306
C      -2.94394991      0.51796437      0.40994862
N      -2.56986233     -0.74243525      0.30693174
C      -1.23689394     -0.67324786      0.01220139
C      -0.80821581      0.61289680     -0.10005786
C       0.53116695      0.96767264     -0.42201199
O       0.86755112      2.13438475     -0.61135614
N       1.36491452     -0.14627248     -0.56299204
C       2.80317072      0.13322372     -0.64530896
C       3.46523094      0.39961018      0.72494100
O       4.70870538      0.63371234      0.67265854
O       2.70092855      0.36485635      1.73392356
C       0.97161272     -1.49150456     -0.42120476
O       1.76550410     -2.42918641     -0.55724262
N      -0.38611867     -1.73550197     -0.16933303
C      -0.86161385     -3.09116552      0.01287127
H      -2.95033639      3.13450682      0.53557950
H      -1.71671145      3.21312964     -0.75463454
H      -1.21912981      3.15752104      0.97389933
H      -3.94136464      0.85867419      0.65405872
H       2.96042181      1.01619258     -1.27600986
H       3.32047535     -0.70694016     -1.12149435
H      -1.77668787     -3.23915357     -0.56943453
H      -0.12360967     -3.82960752     -0.31149567
H      -1.07290132     -3.25080661      1.07493680
