49
CCCCCCCCOC(=O)[C@@H](C)Oc1ccc(Cl)cc1C
C      -8.25363393      1.58300353     -0.56574438
C      -7.20944662      0.60525776     -1.08101806
C      -5.91538032      0.68970423     -0.27193703
C      -4.88037965     -0.31933506     -0.77217640
C      -3.57015243     -0.20861694      0.01057447
C      -2.55147969     -1.24553523     -0.46718098
C      -1.24604025     -1.22138181      0.32837310
C      -0.42034857      0.04313683      0.10378029
O       0.80690566     -0.03192199      0.84897217
C       1.83924572     -0.68528318      0.23368195
O       1.77497319     -1.18916608     -0.87989802
C       3.07457526     -0.67434064      1.14280227
C       2.79614735     -1.53026033      2.37550187
O       4.23272121     -1.23500561      0.50789095
C       5.02119923     -0.26316352     -0.04962598
C       4.79258799      0.10301688     -1.37780641
C       5.59240635      1.07420562     -1.97859925
C       6.62483382      1.66101698     -1.25097504
Cl      7.61269173      2.86195169     -1.98874483
C       6.87158856      1.27703956      0.06878999
C       6.08247661      0.29113331      0.67996313
C       6.36575408     -0.12714722      2.09264785
H      -7.88459655      2.61341273     -0.61047512
H      -9.16290309      1.52024186     -1.17188372
H      -8.52092639      1.35871203      0.47225520
H      -7.00227595      0.82378837     -2.13502974
H      -7.61486097     -0.41233311     -1.03384174
H      -5.50508923      1.70481062     -0.34206900
H      -6.12933221      0.49958791      0.78695942
H      -4.68456862     -0.15043738     -1.83791094
H      -5.28363132     -1.33441150     -0.67439469
H      -3.76668510     -0.35368173      1.07969245
H      -3.16583649      0.80229727     -0.11159933
H      -2.99169825     -2.24613719     -0.37308084
H      -2.33666454     -1.09443546     -1.53202819
H      -1.44987144     -1.34039062      1.39970615
H      -0.64873803     -2.09720579      0.04608941
H      -0.22189596      0.21845406     -0.96034718
H      -0.95367422      0.92206031      0.47910006
H       3.25776437      0.36311888      1.45630745
H       2.57394884     -2.56453345      2.08855514
H       1.94760523     -1.14852913      2.95168937
H       3.67361832     -1.56246850      3.02989789
H       3.99967276     -0.37255166     -1.94968657
H       5.41036244      1.35953507     -3.01090086
H       7.68970003      1.73859060      0.61696904
H       7.36440081      0.19245098      2.40925640
H       6.33167577     -1.21734958      2.18819354
H       5.63325451      0.31909564      2.77197595
