33
CCCSP(=S)(OCC)Oc1ccc(Cl)cc1Cl
C       3.31151882     -1.74990394      0.37058835
C       3.42622938     -0.26908764      0.71178814
C       2.09323877      0.47522441      0.66572459
S       0.96517096     -0.03877139      1.99071221
P      -0.86819468      0.86173167      1.44650751
S      -2.37166757      0.74592848      2.68956683
O      -0.46593147      2.40664994      1.11467388
C      -1.44315223      3.28016305      0.57072218
C      -0.72959610      4.43029529     -0.11278816
O      -1.21917730      0.36401977     -0.05495416
C      -1.43666761     -0.91570650     -0.48556994
C      -1.54279194     -2.01444692      0.36687271
C      -1.75858386     -3.29138820     -0.16165251
C      -1.87409829     -3.46972868     -1.53867506
Cl     -2.14107329     -5.04449314     -2.17578095
C      -1.77519050     -2.38271448     -2.40010928
C      -1.55678181     -1.10964426     -1.87140520
Cl     -1.42747987      0.21910798     -2.97056752
H       4.30729776     -2.20272711      0.32769590
H       2.73141247     -2.29650586      1.11944499
H       2.83566582     -1.89027666     -0.60476901
H       4.10139903      0.19466756     -0.01816043
H       3.90126028     -0.14972107      1.69286297
H       2.27125785      1.55003440      0.77332513
H       1.60720783      0.31604420     -0.30161779
H      -2.07247043      3.66215092      1.38115437
H      -2.07456688      2.75332781     -0.15132257
H      -0.08343644      4.96069302      0.59420383
H      -0.08627093      4.05798034     -0.91711285
H      -1.44717702      5.13933081     -0.53479666
H      -1.46797688     -1.92464490      1.44619123
H      -1.84021415     -4.14326729      0.51071399
H      -1.86915971     -2.52432158     -3.47346671
