23
CCCCC(=O)OCC
C       3.75714744     -0.29581978     -0.65730633
C       2.28559432     -0.58029677     -0.39958839
C       1.78756341      0.14560343      0.85270011
C       0.31699532     -0.14591002      1.15048831
C      -0.63003468      0.52873406      0.18418899
O      -0.33891140      1.43883741     -0.57835156
O      -1.87365680     -0.01540568      0.31467011
C      -2.86043476      0.56262367     -0.54828126
C      -4.17915822     -0.14294082     -0.29900530
H       3.92853705      0.77444125     -0.81059564
H       4.37415377     -0.62609407      0.18444082
H       4.09418852     -0.82566913     -1.55374251
H       1.70542002     -0.27171162     -1.27611096
H       2.14484880     -1.66118378     -0.28282858
H       1.94593503      1.22542922      0.74444207
H       2.38619759     -0.17964727      1.71253216
H       0.14272884     -1.22754156      1.12691278
H       0.07318766      0.22352579      2.15295955
H      -2.96484147      1.63070638     -0.32697299
H      -2.56141583      0.42902433     -1.59397529
H      -4.96717524      0.26570481     -0.93768628
H      -4.08534927     -1.21609112     -0.49561028
H      -4.48152010     -0.03631875      0.74804381
