25
O=C(O)C1(O)CC(O)C(O)C(O)C1
O       1.63706005      0.10854771      1.84500791
C       2.04492159     -0.20670431      0.73923805
O       3.28156668     -0.72137451      0.52188888
C       1.24855904     -0.07339776     -0.57048106
O       2.23400352     -0.05440885     -1.63014551
C       0.44359978      1.23166516     -0.61029848
C      -0.80931417      1.19638705      0.26394966
O      -1.59666209      2.36701335      0.01563060
C      -1.67005377     -0.03204320     -0.04618434
O      -2.79400836     -0.07564624      0.84407980
C      -0.86014591     -1.32088178      0.11623078
O      -1.67750472     -2.43725019     -0.24212519
C       0.37576007     -1.31253380     -0.77746224
H       3.38122814     -0.89560372     -0.44433673
H       2.54963719      0.86461612     -1.73211315
H       1.07181756      2.08221413     -0.31358080
H       0.15723097      1.45470935     -1.64776529
H      -0.55943851      1.21347014      1.33007038
H      -1.11024310      3.12762601      0.38257261
H      -2.09211410      0.03240193     -1.05685575
H      -3.18017499      0.82245888      0.80687857
H      -0.57915099     -1.46478248      1.16590395
H      -2.51969339     -2.30037088      0.23796245
H       0.06737431     -1.37577786     -1.83064951
H       0.95574519     -2.23033423     -0.61104426
