25
Nc1c2ccccc2nc2ccc(Cl)cc12
N      -0.05690670     -2.47402730     -0.54296390
C      -0.03965784     -1.07022475     -0.30920642
C      -1.25466239     -0.37670719     -0.04769187
C      -2.54174583     -0.97573470     -0.04447696
C      -3.69495306     -0.22662083      0.18979694
C      -3.58662710      1.13392764      0.42806983
C      -2.32522772      1.73020100      0.44193938
C      -1.16296975      1.00321667      0.21854684
N       0.00145947      1.66146046      0.27819802
C       1.14703234      0.98834380      0.13095025
C       2.33168874      1.70112417      0.26646305
C       3.58084632      1.08800820      0.15670446
C       3.64568858     -0.27348187     -0.08977399
Cl      5.17364119     -1.05200383     -0.21553999
C       2.47353460     -1.01193783     -0.23674773
C       1.19998401     -0.39312987     -0.14172623
H       0.74607520     -2.80521605     -1.06689355
H      -0.91203119     -2.79365189     -0.98542481
H      -2.65957749     -2.04266023     -0.20948879
H      -4.66957252     -0.70767302      0.18953134
H      -4.47379005      1.73350297      0.61292277
H      -2.24466811      2.79660272      0.64217850
H       2.27976404      2.76852024      0.47239242
H       4.48523725      1.67833917      0.27321710
H       2.55743802     -2.08017767     -0.41097666
