28
c1ccc(-c2cnc(-c3ccccc3)o2)cc1
C       4.98575230      0.29700786      0.52260526
C       4.74237766     -0.72961456     -0.38599149
C       3.42900486     -1.06788770     -0.72679057
C       2.34001157     -0.38462880     -0.16410738
C       0.97497090     -0.74355118     -0.52476183
C       0.38363547     -1.66929447     -1.35656578
N      -0.98337920     -1.55848587     -1.30530091
C      -1.18878074     -0.57480353     -0.44944551
C      -2.45089811     -0.00121815      0.01122359
C      -3.66326715     -0.51209476     -0.47759762
C      -4.88617777      0.01593395     -0.05555837
C      -4.91241378      1.06339097      0.86226775
C      -3.71844664      1.58289498      1.35803746
C      -2.49534328      1.05404541      0.93529121
O      -0.03924969     -0.03299629      0.06437456
C       2.60509176      0.64706692      0.74966149
C       3.91771853      0.98584939      1.09089252
H       6.00655879      0.56010083      0.78764213
H       5.57464790     -1.26909334     -0.83120406
H       3.27292118     -1.87420566     -1.43923251
H       0.86321129     -2.40522734     -1.98591610
H      -3.65738551     -1.33097303     -1.19561647
H      -5.81558546     -0.39199116     -0.44458679
H      -5.86335398      1.47475752      1.19110768
H      -3.73722575      2.40034502      2.07438458
H      -1.57600380      1.47559824      1.33591752
H       1.78860160      1.20103622      1.20809966
H       4.10300707      1.78803851      1.80068477
