56
O=S(=O)(NCC(c1ccccc1)N1CCCCCC1)c1cccc2cccnc12
O       1.40483266      3.44026761     -1.07349302
S       2.03466727      2.25117129     -1.61265841
O       2.80033347      2.30372967     -2.83743619
N       0.82045206      1.08346845     -1.79206372
C      -0.18438628      1.00176914     -0.70107973
C      -1.28946052     -0.04760076     -1.03745884
C      -0.80439689     -1.50470699     -1.05999920
C      -1.39151685     -2.39821771     -1.97450799
C      -1.00520668     -3.73918918     -2.02241784
C      -0.03424491     -4.21568595     -1.14674806
C       0.54636202     -3.35211779     -0.22201946
C       0.16588131     -2.00750915     -0.17848174
N      -2.53875962      0.08547830     -0.23793999
C      -3.36253946      1.22653874     -0.64662849
C      -3.42459821      2.44661070      0.27778789
C      -4.42725153      2.29192649      1.41654210
C      -3.99528625      1.32667449      2.50901879
C      -3.66541399     -0.07904591      2.02013452
C      -2.37579297     -0.14878260      1.19493823
C       3.08988557      1.59082303     -0.35469720
C       3.48374979      2.43156710      0.69802029
C       4.32518967      1.94213263      1.68747717
C       4.76653152      0.62403913      1.61789127
C       4.36338330     -0.21361045      0.56201698
C       4.80759145     -1.54134312      0.49357644
C       4.40126518     -2.36002291     -0.55136179
C       3.54964175     -1.82498550     -1.49346431
N       3.09071416     -0.55422515     -1.45147138
C       3.50206632      0.26193038     -0.45191566
H       1.27732945      0.18283500     -2.00168389
H      -0.65183786      1.98754726     -0.61542771
H       0.30876056      0.77726100      0.24861615
H      -1.55876939      0.14965890     -2.08665288
H      -2.16762135     -2.04829036     -2.65298266
H      -1.47225902     -4.41123589     -2.73748880
H       0.25967704     -5.26117955     -1.17757363
H       1.29437216     -3.72440447      0.47297166
H       0.63188482     -1.37054619      0.56732091
H      -4.38253995      0.85109167     -0.80087579
H      -3.05778101      1.58125432     -1.63991004
H      -3.74804729      3.30326137     -0.32792887
H      -2.43439923      2.70899168      0.66593746
H      -4.58713153      3.27573770      1.87518008
H      -5.39962883      1.98106131      1.01490329
H      -4.80515780      1.25855936      3.24597087
H      -3.13129629      1.74199923      3.04272863
H      -4.51033785     -0.51048615      1.46977465
H      -3.52878151     -0.71026160      2.90807424
H      -1.99175319     -1.16459871      1.33835978
H      -1.62876605      0.52815194      1.62630455
H       3.14623855      3.46562893      0.74024992
H       4.64336596      2.58538198      2.50465873
H       5.43208937      0.25114365      2.39449830
H       5.47727177     -1.94287953      1.25073246
H       4.73929207     -3.38728297     -0.62681051
H       3.19213306     -2.41948387     -2.33050760
