44
CCCCOP(=O)(OCCCC)OCCCC
C      -4.26900246     -2.21047041      1.76024467
C      -3.04072534     -1.39828294      1.38150081
C      -1.90053334     -2.29868739      0.90231638
C      -0.66880156     -1.49729849      0.49606382
O      -0.14827930     -0.82629708      1.62990350
P       0.95462454      0.32421424      1.40388712
O       1.56814023      0.86520416      2.65625479
O       0.18333667      1.42149764      0.50983779
C      -0.73818329      2.25397775      1.19375725
C      -1.47867289      3.12694475      0.18686183
C      -2.36161492      2.30181366     -0.75184115
C      -3.10040741      3.18776641     -1.74289407
O       1.99374480     -0.33289387      0.36415282
C       3.14252804      0.43399095      0.05005022
C       3.93505063     -0.25952831     -1.05157782
C       4.45334886     -1.63151928     -0.61494370
C       5.29161127     -2.28148470     -1.70568959
H      -5.07438210     -1.54733223      2.09100971
H      -4.63412472     -2.78921471      0.90520548
H      -4.04366882     -2.90532154      2.57584244
H      -2.72023303     -0.80978724      2.24849233
H      -3.31006107     -0.69014001      0.58987105
H      -1.63203197     -2.99150104      1.70965161
H      -2.23624466     -2.89688577      0.04760912
H      -0.92437875     -0.77865340     -0.28920734
H       0.09739257     -2.17657688      0.10875416
H      -1.44336995      1.63829910      1.76183887
H      -0.18608276      2.88885705      1.89404994
H      -0.75010785      3.68746662     -0.41221181
H      -2.09453353      3.85457608      0.72777128
H      -1.75342946      1.57835219     -1.30594010
H      -3.09259132      1.73125636     -0.16761860
H      -2.39766528      3.74084679     -2.37522272
H      -3.73632589      2.57925853     -2.39365774
H      -3.73929571      3.90953625     -1.22361480
H       3.75671913      0.55054380      0.94905369
H       2.83285656      1.42735942     -0.29114370
H       3.29452006     -0.38732186     -1.93278842
H       4.77692121      0.37869252     -1.34311831
H       5.06145858     -1.52763875      0.29147515
H       3.61401502     -2.29219532     -0.36890102
H       4.70498060     -2.42490531     -2.61954285
H       5.65027186     -3.26095479     -1.37484226
H       6.16322672     -1.66556296     -1.94971036
