20
O=C1O[C@H]([C@@H](O)CO)C(O)=C1O
O       2.39363752      1.40407245     -1.78088507
C       1.79655216      0.86021166     -0.86783318
O       1.06863287     -0.29016095     -0.94092523
C       0.47737864     -0.55766220      0.34881943
C      -1.05572933     -0.48704536      0.25483293
O      -1.48780743      0.79650573     -0.23624261
C      -1.60471912     -1.55573426     -0.69603848
O      -3.03157793     -1.44790285     -0.71644729
C       1.07155173      0.48364171      1.22178542
O       0.85742976      0.51049807      2.57254424
C       1.81989163      1.32808055      0.52456672
O       2.52160317      2.40122771      0.99226937
H       0.80131419     -1.55494154      0.66762162
H      -1.50614032     -0.60987163      1.24706476
H      -2.44076870      0.68040457     -0.42719959
H      -1.33362314     -2.56212283     -0.36347444
H      -1.25156471     -1.39634048     -1.71983828
H      -3.35412616     -2.10791180     -1.35611811
H       1.31712180      1.30730169      2.90728823
H       2.94094338      2.79774976      0.20050083
