37
Cc1ccc2c(ccc3c4c5c(cccc5cc32)CC4)c1
C       6.01398594     -0.03433784     -0.15625591
C       4.51532946     -0.00542824     -0.17314344
C       3.81511606     -0.12226924     -1.36934148
C       2.41544384     -0.12590717     -1.37197384
C       1.65202691     -0.02394095     -0.18199903
C       2.38443228      0.07851667      1.02817779
C       1.70984971      0.17682927      2.24710806
C       0.31938107      0.17813429      2.29783821
C      -0.44233011      0.08068747      1.12818081
C      -1.84101473      0.08308494      1.18663827
C      -2.57152446     -0.01319401      0.03169135
C      -3.91793153      0.00609540      0.29341106
C      -4.81767767     -0.08163431     -0.75581188
C      -4.31819774     -0.18819631     -2.06272057
C      -2.93174628     -0.20614815     -2.30924033
C      -2.02136241     -0.11668766     -1.23851149
C      -0.61416319     -0.11984732     -1.30586104
C       0.21116524     -0.02269444     -0.14005846
C      -4.18191869      0.12649090      1.76270319
C      -2.75961800      0.17952223      2.37733157
C       3.79132107      0.08118731      1.01896511
H       6.36727500     -1.06317881     -0.03699340
H       6.40666387      0.57314180      0.66594113
H       6.42411296      0.37453740     -1.08572035
H       4.34736608     -0.21089924     -2.31373952
H       1.93030478     -0.21471917     -2.33949993
H       2.26356621      0.25500100      3.18048139
H      -0.16029107      0.25717101      3.27039007
H      -5.88818241     -0.06864941     -0.57652229
H      -5.01097482     -0.25797804     -2.89824192
H      -2.57005132     -0.28943173     -3.33049051
H      -0.16652844     -0.19950171     -2.29166125
H      -4.73595545     -0.74046914      2.13691949
H      -4.73905687      1.04102140      1.99039591
H      -2.60877362      1.12113130      2.91574458
H      -2.60572211     -0.66083755      3.06244475
H       4.33568045      0.15339807      1.95946248
