45
Cc1cc(C(O)(c2ccc(N)cc2)c2ccc(N)cc2)ccc1N
C       4.31390221     -2.07100611     -0.13783423
C       3.42681839     -0.87545821      0.07701211
C       2.10341804     -0.91308987     -0.40013549
C       1.19942323      0.15296285     -0.19588416
C      -0.24331615      0.04367774     -0.74704331
O      -0.10663161     -0.20572383     -2.16774604
C      -1.02062053     -1.17233893     -0.19061951
C      -0.78606852     -1.68784813      1.09739889
C      -1.52513827     -2.77095418      1.58845965
C      -2.49598632     -3.39071057      0.80211294
N      -3.30887230     -4.39397647      1.34292385
C      -2.79064121     -2.84071937     -0.44470595
C      -2.05454135     -1.75971150     -0.94262087
C      -1.06954181      1.34414645     -0.61736095
C      -1.82606955      1.62666844      0.53533855
C      -2.54149073      2.82407007      0.65922271
C      -2.55449081      3.75998280     -0.37357585
N      -3.17359184      5.00275668     -0.19455072
C      -1.75385999      3.52571824     -1.49013926
C      -1.03645223      2.33042556     -1.62097612
C       1.66735278      1.26240340      0.51986874
C       2.98400490      1.30911448      0.99154594
C       3.88940934      0.27478291      0.73355456
N       5.16033003      0.32422204      1.32526151
H       4.69196077     -2.44262593      0.82007801
H       3.77339568     -2.89429398     -0.61693926
H       5.15567708     -1.80555866     -0.78538009
H       1.75535820     -1.80430618     -0.92481611
H       0.81146394     -0.00348309     -2.40692456
H      -0.03491882     -1.24276319      1.74715976
H      -1.33255854     -3.12372729      2.59817741
H      -2.85486510     -4.93719323      2.07015288
H      -3.74906183     -4.98091560      0.64140701
H      -3.59939275     -3.24620486     -1.04635792
H      -2.30417930     -1.36195709     -1.92515428
H      -1.86084749      0.92423858      1.36493403
H      -3.09227408      3.01379562      1.57673120
H      -3.96023236      4.97337546      0.44668783
H      -3.40822496      5.46704854     -1.06629217
H      -1.68015003      4.27172317     -2.27680192
H      -0.44028402      2.18366976     -2.51872610
H       1.02294212      2.11106203      0.73792259
H       3.29858607      2.17601046      1.56809311
H       5.49338279      1.26765433      1.49702344
H       5.85687692     -0.24494334      0.85696309
