14
S=C=Nc1ccccc1
S       4.16555979     -0.50086525     -0.61485016
C       2.66464442     -0.96562086      0.26555283
N       1.69496146     -1.28074814      0.84952884
C       0.56693548     -0.56149240      0.42007049
C      -0.24673680     -1.06043935     -0.60561024
C      -1.38213897     -0.35865267     -1.01612731
C      -1.72197510      0.84145556     -0.39364662
C      -0.93331699      1.33637067      0.64380602
C       0.20185739      0.63372365      1.05348050
H       0.00308371     -2.00317603     -1.08597144
H      -2.00378844     -0.75169666     -1.81664233
H      -2.60748281      1.38683874     -0.71113042
H      -1.20482990      2.26565422      1.13824389
H       0.80322676      1.01864853      1.87329596
