38
CCCCCCC(CCCC)C(=O)O
C       6.05212025      0.05047728      0.92318294
C       4.64330824      0.62006362      0.87536206
C       3.59572508     -0.48638508      0.75383479
C       2.17894573      0.09108200      0.70651873
C       1.13311790     -1.01901526      0.57903005
C      -0.31491297     -0.51527628      0.67095185
C      -0.75233452      0.40959334     -0.47911856
C      -2.12344032      1.06910820     -0.23370033
C      -3.28332993      0.09595072      0.00559291
C      -4.60285266      0.84797668      0.19224170
C      -5.75984433     -0.10850949      0.43375395
C      -0.74085943     -0.25396948     -1.84115114
O      -0.53191832      0.31397737     -2.90183243
O      -1.04766491     -1.56283320     -1.82825792
H       6.17713573     -0.61533343      1.78306732
H       6.78498308      0.85873229      1.01004883
H       6.27730334     -0.51604059      0.01396022
H       4.56153479      1.30573966      0.02397250
H       4.46164217      1.20686665      1.78330078
H       3.78369916     -1.07258033     -0.15399804
H       3.68556494     -1.17163945      1.60553947
H       1.98962477      0.67313569      1.61637911
H       2.10420974      0.77878717     -0.14277961
H       1.28693446     -1.74468937      1.38783655
H       1.28606776     -1.56439276     -0.35925027
H      -0.96736347     -1.39558585      0.71721918
H      -0.44065767      0.01265274      1.62486873
H      -0.02327117      1.22667211     -0.54631960
H      -2.03822461      1.73606793      0.63403351
H      -2.36925442      1.70833486     -1.09195505
H      -3.37879483     -0.59198643     -0.84169592
H      -3.08940067     -0.50872053      0.89838832
H      -4.81634492      1.45237800     -0.69703805
H      -4.52229604      1.53646103      1.04147905
H      -6.69221161      0.44972498      0.56399821
H      -5.88781409     -0.79097375     -0.41252997
H      -5.59299366     -0.70632618      1.33547464
H      -1.02613259     -1.81952486     -2.77395058
