18
O=C(O)CSSSSCC(=O)O
O       3.20229542      0.78889316      0.47924713
C       2.84661373      0.46055933     -0.63970198
O       2.67380560      1.41041758     -1.58740619
C       2.57447975     -0.91875339     -1.18692061
S       2.65040404     -2.22185474      0.07846869
S       1.09572529     -1.76116536      1.34176507
S      -0.57524785     -2.59481044      0.49461727
S      -1.34250987     -1.13593361     -0.72983511
C      -2.34076014     -0.16341436      0.43743033
C      -2.95830890      1.03644434     -0.24031435
O      -2.70423984      1.51423504     -1.33291360
O      -3.88737119      1.62704313      0.54559162
H       2.87942051      2.24962521     -1.12319184
H       1.59968136     -0.93912062     -1.67925894
H       3.34428668     -1.14053537     -1.93260144
H      -3.14514005     -0.79673728      0.82342039
H      -1.71127888      0.19863478      1.25542716
H      -4.20185568      2.38647259      0.00955917
