30
C=CC1(C)CCC(C(C)(C)O)O1
C      -3.63769778      1.63529517      0.10312465
C      -2.43622284      1.25463880      0.56023108
C      -1.55876805      0.13727041      0.04745653
C      -1.99842595     -0.45889832     -1.29592493
C      -1.38250942     -0.95585005      1.10746499
C       0.06721326     -1.34900400      0.94921369
C       0.71707059     -0.00688804      0.64923743
C       2.06994975     -0.07466734     -0.09484561
C       2.62697349      1.33118569     -0.34573149
C       3.09711343     -0.91437262      0.66401141
O       1.86767909     -0.68643816     -1.37681907
O      -0.24520390      0.70559818     -0.16355946
H      -4.12962083      1.14533573     -0.73002494
H      -4.16088725      2.46907968      0.56240483
H      -2.02055605      1.81442076      1.39755721
H      -2.97096094     -0.95698067     -1.22307317
H      -2.05832343      0.31655434     -2.06884087
H      -1.26936373     -1.19079402     -1.66186175
H      -2.06761178     -1.80039199      0.98110606
H      -1.53573948     -0.56203646      2.12084728
H       0.47619409     -1.82794184      1.84340020
H       0.17278846     -2.04555327      0.10999931
H       0.83272798      0.56139627      1.58167285
H       1.94303667      1.92809777     -0.95929073
H       2.80707788      1.86477294      0.59313737
H       3.56997160      1.28177487     -0.90245792
H       4.05250084     -0.93879528      0.12698831
H       2.77415265     -1.95750473      0.75035779
H       3.27597267     -0.51874375      1.66897540
H       1.12146896     -0.20056010     -1.77974343
