39
OCC1OC(n2c(-c3ccco3)nc3ccccc32)C(O)C1O
O       3.38322661     -0.28317049      2.50612148
C       3.72269681      0.59614358      1.43319878
C       2.73207802      0.44908930      0.27768150
O       1.41518951      0.85710104      0.71511899
C       0.48902651     -0.19879514      0.37604882
N      -0.77328988      0.37583091     -0.07431774
C      -2.02992332     -0.14978183      0.16340108
C      -2.33010564     -1.38932306      0.81983106
C      -3.55550813     -1.81687605      1.30616272
C      -3.36996935     -3.11096612      1.84718651
C      -2.04535520     -3.41292784      1.65291022
O      -1.41305888     -2.38886345      1.02646282
N      -2.97285544      0.62996676     -0.32679358
C      -2.32074261      1.65422260     -0.95559355
C      -2.85802040      2.73796724     -1.66682681
C      -1.98680286      3.66314710     -2.25029924
C      -0.60671451      3.51142206     -2.12684182
C      -0.05453088      2.43771911     -1.41779087
C      -0.94022491      1.51948540     -0.83554714
C       1.17211706     -1.05265612     -0.69327640
O       0.77318440     -2.42061262     -0.77005557
C       2.61715875     -0.98122234     -0.23484353
O       3.51708837     -1.24585332     -1.30742792
H       3.97326101     -0.06230666      3.24792455
H       4.74007404      0.36199837      1.10521352
H       3.69391396      1.61868150      1.82346277
H       3.03357690      1.12888397     -0.52799010
H       0.30742231     -0.75488476      1.30011514
H      -4.47267166     -1.24355629      1.26643995
H      -4.11100410     -3.74362760      2.31527837
H      -1.43062229     -4.27163844      1.88683817
H      -3.93302011      2.84473484     -1.76059943
H      -2.39213949      4.50634556     -2.80406596
H       0.05524835      4.24307243     -2.58583223
H       1.02080435      2.34200229     -1.32455821
H       1.06526560     -0.62336855     -1.69674262
H      -0.18813461     -2.47529145     -0.60552088
H       2.80843473     -1.72656314      0.54577242
H       3.26492697     -2.12552879     -1.65024525
