33
CC(C)CCOCCC(C)C
C      -3.73227501      1.57308945      0.63396539
C      -2.74080003      0.46641964      0.26519205
C      -3.46391406     -0.87999947      0.21570533
C      -2.04892976      0.81024378     -1.06880907
C      -0.97244927     -0.18329232     -1.50193837
O       0.01524361     -0.28632515     -0.48011924
C       1.04641884     -1.20611432     -0.82787325
C       2.07329579     -1.26790485      0.30138778
C       2.71129625      0.08776965      0.66410164
C       3.47322314      0.70495182     -0.50924454
C       3.65315676     -0.08679336      1.85832154
H      -4.20549896      1.36590142      1.59968918
H      -3.22447236      2.54015130      0.71331857
H      -4.52325796      1.66548530     -0.11814132
H      -1.98518057      0.42029902      1.05927517
H      -4.00433223     -1.06508290      1.15040596
H      -2.75860734     -1.70574779      0.08161712
H      -4.18833423     -0.91173545     -0.60507954
H      -1.57850833      1.79658565     -0.96324794
H      -2.79593221      0.89537463     -1.86749546
H      -1.40853016     -1.16767534     -1.70278872
H      -0.50190766      0.17699494     -2.42424789
H       0.60968872     -2.20149837     -0.97052135
H       1.51872870     -0.90224748     -1.76814225
H       2.85419471     -1.98972569      0.03244221
H       1.57110230     -1.65743763      1.19658401
H       1.92091990      0.78674253      0.96476467
H       3.97425646      1.62983402     -0.20341570
H       2.79828176      0.96019528     -1.33180295
H       4.23586736      0.01866996     -0.89248070
H       4.47558944     -0.76988659      1.61990238
H       3.11540974     -0.49124591      2.72239042
H       4.08625665      0.87400424      2.15628489
