28
N[C@]12C[C@H]3C[C@H](C[C@H](C3)C1)C2
N      -2.65398413      0.03764681     -0.76276465
C      -1.25280720      0.01594056     -0.34681107
C      -0.92868583     -1.33776008      0.32223464
C       0.54309482     -1.36607492      0.77346758
C       1.45206646     -1.16694225     -0.45139166
C       1.14821395      0.18414960     -1.12098843
C       1.38869160      1.31674270     -0.10829967
C       0.47938286      1.13082706      1.11838515
C       0.78715867     -0.22524573      1.77598091
C      -0.99222044      1.15220602      0.66619313
C      -0.32495117      0.20825019     -1.56757490
H      -2.86301304      0.91945538     -1.22955017
H      -2.82184326     -0.69402715     -1.45243374
H      -1.11408616     -2.16578457     -0.37480787
H      -1.58153878     -1.50360983      1.18949643
H       0.76600163     -2.32869443      1.24700127
H       1.29902344     -1.98309995     -1.16812915
H       2.50496773     -1.20471851     -0.14599599
H       1.80034817      0.32094350     -1.99079418
H       2.44046901      1.32300978      0.20318022
H       1.19004328      2.28783923     -0.57814904
H       0.65710399      1.93905145      1.83654004
H       1.82837715     -0.24627321      2.12052981
H       0.15573059     -0.36377586      2.66218337
H      -1.22364043      2.12775437      0.21829156
H      -1.64654445      1.04399969      1.54141704
H      -0.54093812      1.16141737     -2.06810409
H      -0.49642033     -0.58322720     -2.30910655
