42
CC[C@H]1OC[C@@H](COc2ccc(Oc3ccccc3)cc2)O1
C      -7.09732536      0.79380693     -0.39895821
C      -6.22234910      0.03791738     -1.38602408
C      -5.38606491     -1.04670704     -0.71480374
O      -4.64177970     -1.76302595     -1.71175723
C      -3.27443017     -1.43286701     -1.45898235
C      -3.25389489     -1.15433437      0.02450505
C      -2.06139217     -0.32358721      0.47568455
O      -0.86336715     -1.05509088      0.21552198
C       0.31563331     -0.47364963      0.59107342
C       0.46192197      0.78988211      1.16648569
C       1.73427092      1.26294758      1.50462315
C       2.86276026      0.48235927      1.25476379
O       4.07614543      0.99714355      1.64945287
C       5.13440755      0.86618426      0.77854041
C       5.04695734      1.21328936     -0.57243909
C       6.16962187      1.09229984     -1.39312958
C       7.37796588      0.64102247     -0.86107618
C       7.46896095      0.31735210      0.49359750
C       6.34840597      0.43737180      1.31631778
C       2.72204396     -0.78947664      0.69923069
C       1.45051077     -1.25820557      0.36149239
O      -4.48616617     -0.45908862      0.23560770
H      -7.78182262      0.11380142      0.11796545
H      -7.69693986      1.54388251     -0.92430381
H      -6.49354621      1.31208829      0.35280008
H      -5.56064066      0.75274823     -1.88996046
H      -6.84660112     -0.41009799     -2.16828325
H      -6.02827739     -1.76438765     -0.19271509
H      -2.62247932     -2.25792411     -1.75755892
H      -3.02936945     -0.54573262     -2.05322013
H      -3.29593924     -2.09913963      0.58168275
H      -2.16245038     -0.11680137      1.54925675
H      -2.05550776      0.63415160     -0.06171573
H      -0.38885563      1.43188195      1.36991079
H       1.84480211      2.24346414      1.96055813
H       4.11454817      1.58263489     -0.98964749
H       6.10369539      1.35587851     -2.44595190
H       8.25174578      0.54958123     -1.50116195
H       8.41327531     -0.02384463      0.90933034
H       6.41940413      0.19358153      2.37345921
H       3.58846612     -1.42345328      0.53261537
H       1.34365608     -2.24785678     -0.07639713
