26
CCCCC(NC(N)=O)C(=O)O
C       3.11945700      1.22739428     -1.08365991
C       2.15400839      0.43256074     -0.21757917
C       1.02831308      1.31777028      0.31815086
C       0.09689796      0.59376841      1.29773624
C      -0.66419845     -0.59267528      0.69705444
N      -1.53773026     -0.16208284     -0.39589638
C      -1.87349237     -1.05352613     -1.37157430
N      -2.79763481     -0.54737571     -2.22490426
O      -1.41787784     -2.17811476     -1.50102460
C      -1.53790106     -1.22305615      1.78262294
O      -2.71005830     -0.95938925      2.01045167
O      -0.87139780     -2.10242983      2.55732096
H       3.91447930      0.57625647     -1.46037172
H       2.60383561      1.66681556     -1.94355374
H       3.58565109      2.03604078     -0.51175693
H       1.74243481     -0.38682571     -0.81636108
H       2.70531520     -0.01602728      0.61674214
H       1.46657201      2.17762917      0.84038219
H       0.44842837      1.72609765     -0.51814210
H      -0.62081663      1.32666789      1.69047512
H       0.68323556      0.25318771      2.16095227
H       0.02092341     -1.36304905      0.32720829
H      -2.32727996      0.40348607     -0.10876037
H      -2.69765884      0.43144026     -2.45211529
H      -2.96194910     -1.14628238     -3.02489285
H      -1.55155637     -2.43828091      3.17804661
