53
C#C[C@]1(O)CC[C@H]2[C@@H]3CCC4=CCCC[C@@H]4[C@H]3C(=C)C[C@@]21CC
C      -3.36438376     -1.11359829      3.14115692
C      -3.39098583     -0.82874151      1.97411633
C      -3.44545374     -0.47941568      0.53561276
O      -4.61052290      0.30182714      0.33570086
C      -3.53856567     -1.77300311     -0.32153507
C      -2.11903785     -2.06785556     -0.84406139
C      -1.23506405     -1.05229328     -0.12841713
C       0.17065158     -0.75587809     -0.68535028
C       0.98926833     -2.04488270     -0.83172175
C       2.38169080     -1.74201576     -1.36422914
C       3.10820280     -0.79309956     -0.45129901
C       4.34105898     -1.08590805      0.00324736
C       5.16499382     -0.16281727      0.84693267
C       4.62029888      1.26054853      0.85183023
C       3.10716976      1.25793110      1.03892154
C       2.37905239      0.50485411     -0.10682949
C       0.87809388      0.26182058      0.27155829
C      -0.02774230      1.50106962      0.41626567
C       0.29395612      2.75932517      0.07157546
C      -1.42484757      1.18934328      0.95396132
C      -2.14626489      0.20932978     -0.00011991
C      -2.41074425      0.89393613     -1.40082553
C      -3.11326849      2.25147642     -1.39175843
H      -3.33775164     -1.36037232      4.17764588
H      -5.35502674     -0.19179070      0.71977928
H      -4.22474436     -1.64508038     -1.16768707
H      -3.91744621     -2.62467986      0.25649612
H      -1.82277390     -3.09739389     -0.61797484
H      -2.07718027     -1.94272607     -1.93166150
H      -1.06695073     -1.46463258      0.88010659
H       0.09259146     -0.31251905     -1.68518227
H       0.49122203     -2.73082494     -1.52671725
H       1.06028797     -2.56257703      0.13360672
H       2.93079114     -2.68383171     -1.48235366
H       2.31088128     -1.29209252     -2.36235964
H       4.80896936     -2.03224365     -0.25972909
H       6.19570546     -0.15002558      0.47494817
H       5.19579560     -0.55784361      1.86918644
H       4.87184859      1.76126063     -0.09177581
H       5.09812129      1.83417935      1.65412979
H       2.76819900      2.29538024      1.10473102
H       2.87074913      0.79277286      2.00533886
H       2.41951904      1.12446294     -1.01337087
H       0.89950260     -0.20601702      1.26922582
H       1.24899167      3.02755075     -0.36414601
H      -0.41179848      3.57561049      0.19816945
H      -2.02018702      2.09635327      1.10586370
H      -1.29311515      0.75520851      1.95247219
H      -2.99923910      0.22862716     -2.04283333
H      -1.46760269      1.04399937     -1.93515872
H      -2.51393225      3.02033666     -0.89983358
H      -3.27085546      2.58428791     -2.42383495
H      -4.09212765      2.22266779     -0.91181374
