30
Cc1ccnc(NS(=O)(=O)c2ccc(N)cc2)n1
C      -2.00660325     -0.82850464     -2.32170346
C      -2.14124955     -1.33396847     -0.91731170
C      -3.02097537     -2.35725698     -0.62273791
C      -3.05649769     -2.76559474      0.69170874
N      -2.30101573     -2.21865296      1.66049132
C      -1.52568349     -1.20286129      1.27158175
N      -0.65047467     -0.77091594      2.25933007
S      -0.31157031      0.85230646      2.32619012
O       0.34869215      1.06679732      3.59994533
O      -1.48926007      1.62251988      1.98517792
C       0.92925979      1.08558855      1.07769434
C       2.20640734      0.55657237      1.27559139
C       3.19132902      0.75763905      0.30495493
C       2.92676184      1.52458661     -0.83481696
N       3.88100501      1.62087652     -1.85462206
C       1.62945619      2.00659371     -1.03880329
C       0.63522159      1.81367776     -0.07597443
N      -1.36675377     -0.75927963      0.02417365
H      -1.66638126     -1.63237840     -2.98180838
H      -1.27834286     -0.01272286     -2.37456702
H      -2.96831008     -0.44976036     -2.68145299
H      -3.64162719     -2.82228700     -1.37730971
H      -3.70930899     -3.57328201      1.01047546
H      -0.82698815     -1.19096944      3.16359655
H       2.43637131     -0.01750714      2.16964829
H       4.17263598      0.31297233      0.44889787
H       4.83897337      1.54480244     -1.52701296
H       3.74696280      2.42045098     -2.46574171
H       1.38141380      2.54068726     -1.95224237
H      -0.36344775      2.20987065     -0.24335277
