18
CC(C)C(C)O
C       1.09809577     -0.53528231     -1.55855382
C       0.55105042     -0.46364161     -0.12835340
C       1.42588043      0.48403773      0.69794983
C      -0.93872825     -0.06101652     -0.13870127
C      -1.58049691     -0.10125876      1.24362905
O      -1.08579060      1.25080767     -0.67729002
H       2.13237404     -0.89596809     -1.55961334
H       1.08403392      0.44519921     -2.04623720
H       0.50554523     -1.22661567     -2.16703106
H       0.63256821     -1.46742180      0.30839375
H       1.37280082      1.51198108      0.32448694
H       2.47478423      0.16957086      0.66212717
H       1.12569970      0.48653468      1.75006076
H      -1.48576297     -0.74771591     -0.79603057
H      -2.65660048      0.08963925      1.16434311
H      -1.18044874      0.68071600      1.89697891
H      -1.43884710     -1.07516875      1.72142316
H      -2.03615772      1.45560294     -0.69758200
