46
CN1CC2CC1CN2c1cc2c(cc1F)c(=O)c(C(=O)O)cn2C1CC1
C       5.35562489     -1.25084701     -1.11160483
N       3.98779325     -0.95475550     -0.70420696
C       3.73198538      0.51768156     -0.61859085
C       3.23405373      0.72449810      0.83578867
C       4.12599981     -0.28027418      1.56852843
C       3.67878701     -1.43300590      0.67675921
C       2.12874496     -1.36347590      0.88257501
N       1.89853275      0.09852872      1.01071271
C       0.71237449      0.68100238      0.60065646
C      -0.49931228     -0.03536153      0.70304275
C      -1.74393693      0.50147402      0.32316927
C      -1.76962148      1.82324556     -0.14940716
C      -0.59947270      2.57291846     -0.25022677
C       0.61360320      2.00241788      0.12535961
F       1.70660944      2.77219369      0.00204520
C      -3.06324348      2.44012150     -0.52422930
O      -3.12630337      3.58195792     -0.97605059
C      -4.29960202      1.65593112     -0.32236641
C      -5.65494601      2.18013239     -0.58664866
O      -6.67441563      1.53207306     -0.39793242
O      -5.68523357      3.44527389     -1.05842883
C      -4.15848192      0.40034226      0.12804753
N      -2.96018401     -0.23553515      0.40252068
C      -3.00663333     -1.60739794      0.94426142
C      -3.85559360     -2.69221670      0.32434556
C      -2.36571362     -2.76613447      0.21936782
H       5.53740588     -0.87122859     -2.12301212
H       6.10936149     -0.81910556     -0.44492117
H       5.51262487     -2.33431319     -1.14717129
H       4.64555683      1.10122844     -0.78537557
H       2.98741563      0.81060290     -1.36487481
H       3.31880389      1.73948351      1.23041742
H       5.19262126     -0.04364696      1.50753865
H       3.84445409     -0.41918021      2.61852050
H       4.09039071     -2.41852409      0.90930580
H       1.60103038     -1.81178909      0.03246250
H       1.83651433     -1.86650982      1.81084146
H      -0.46617959     -1.04030775      1.11199709
H      -0.61352755      3.59695788     -0.61171790
H      -4.79276923      3.85548599     -1.17160585
H      -5.03544010     -0.22058793      0.30336294
H      -2.94543081     -1.61076328      2.03091108
H      -4.35563056     -3.38400127      0.99223759
H      -4.40718963     -2.47858126     -0.58378060
H      -1.92105283     -2.58416278     -0.75240581
H      -1.85037400     -3.51184516      0.81272533
