68
CCCCC(CC)COC(=O)CCCCC(=O)OCC(CC)CCCC
C      -8.27570595      1.92732657      0.53919207
C      -7.01800812      2.11269104     -0.29694779
C      -6.49890621      0.81274996     -0.91911775
C      -5.99207601     -0.18951054      0.12452332
C      -5.34943080     -1.47180361     -0.45708440
C      -6.29240766     -2.30010628     -1.35154176
C      -7.58047711     -2.72421150     -0.66031786
C      -4.04037654     -1.18693349     -1.21741745
O      -3.13829302     -0.47176213     -0.36257936
C      -1.93995752     -0.16575256     -0.93670105
O      -1.61188073     -0.45715883     -2.07806640
C      -1.09742877      0.60408295      0.05439514
C       0.29066260      0.92667144     -0.49928507
C       1.10356998      1.87220908      0.39331678
C       1.33855212      1.38105458      1.81790027
C       2.15110243      0.11260995      1.85343376
O       1.66569209     -1.01047439      1.87772754
O       3.48007225      0.40143424      1.82777964
C       4.33961282     -0.74606481      1.82744420
C       5.80743846     -0.27944919      1.81696531
C       6.73785481     -1.50460717      1.89431576
C       8.21466629     -1.15004782      1.98624229
C       6.11535154      0.67838779      0.64197153
C       6.01945493      0.04899221     -0.75181477
C       6.29686713      1.08776157     -1.84095388
C       6.25710556      0.46796897     -3.22963369
H      -9.06961893      1.45338557     -0.04658251
H      -8.08489251      1.31424917      1.42476787
H      -8.64301561      2.89908653      0.88388255
H      -7.24004182      2.82003378     -1.10517342
H      -6.23442503      2.57116169      0.31756060
H      -7.29371744      0.36024581     -1.52335489
H      -5.68554089      1.07431439     -1.60526492
H      -5.26602444      0.31300010      0.77681786
H      -6.81894608     -0.48358732      0.78118700
H      -5.08224947     -2.09097793      0.41182829
H      -6.53850294     -1.74876081     -2.26627828
H      -5.76627430     -3.20795144     -1.67383442
H      -8.13761232     -3.41826065     -1.29874923
H      -7.37220019     -3.22938627      0.28877376
H      -8.23005152     -1.86624737     -0.46184383
H      -3.57364020     -2.13601470     -1.50909824
H      -4.23533189     -0.59872103     -2.12150184
H      -1.00867295     -0.00576459      0.95945169
H      -1.62617173      1.53245136      0.29648301
H       0.18897934      1.39783411     -1.48579066
H       0.84581875     -0.00432319     -0.66684833
H       2.07154046      2.05422220     -0.09110767
H       0.59143925      2.84112465      0.43969845
H       1.86875190      2.14951799      2.39430949
H       0.39830381      1.20882587      2.35286595
H       4.11987475     -1.37011468      0.95380944
H       4.14931968     -1.33182449      2.73556224
H       5.95709514      0.31327157      2.73076332
H       6.57707915     -2.16407801      1.03356236
H       6.47450512     -2.09084248      2.78346211
H       8.40269694     -0.45737706      2.81143493
H       8.80765954     -2.05297622      2.16019408
H       8.57604418     -0.69493083      1.06061337
H       5.43500743      1.53857142      0.69096572
H       7.12017029      1.09779165      0.77738908
H       5.02180154     -0.37508844     -0.90843852
H       6.74065263     -0.76997884     -0.84469624
H       5.55252674      1.88998998     -1.78513737
H       7.27991673      1.54564536     -1.68106021
H       7.02362480     -0.30541521     -3.33398778
H       5.27890405      0.01879554     -3.43243244
H       6.44216346      1.23304477     -3.99079859
