32
NC(CCSSCCC(N)C(=O)O)C(=O)O
N      -4.30188270     -0.85109009     -1.72725109
C      -3.69411203     -0.17848377     -0.53084091
C      -2.28578809      0.32202383     -0.87387532
C      -1.43280553      0.73821456      0.33143393
S      -1.12335731     -0.59928367      1.54240469
S      -0.06964163     -2.00465031      0.47096754
C       1.68116209     -1.64291114      0.86788753
C       2.16890912     -0.31694487      0.28924161
C       3.65552166     -0.06662666      0.57522817
N       4.49872583     -1.10354206     -0.06444631
C       4.06280900      1.33579508      0.09460869
O       3.35974678      2.33226490      0.06185760
O       5.35980224      1.41004092     -0.28450685
C      -4.63448786      0.97499961     -0.12352591
O      -4.35205685      1.90398142      0.61441743
O      -5.86036254      0.82377873     -0.69382888
H      -3.82102261     -1.74931257     -1.84524522
H      -4.03852348     -0.31851221     -2.56379169
H      -3.70119623     -0.90705680      0.28474171
H      -2.36451272      1.19114305     -1.54129603
H      -1.74633741     -0.44326614     -1.44569764
H      -1.90717215      1.56043209      0.87378013
H      -0.47130228      1.12370014     -0.02097468
H       1.81093362     -1.66966439      1.95522484
H       2.26129010     -2.47437505      0.45514899
H       1.98790577     -0.28292816     -0.79346652
H       1.59666234      0.50730348      0.72892214
H       3.83803676     -0.09455056      1.65571711
H       5.47454014     -0.81681651      0.06661061
H       4.36375748     -1.05956415     -1.07580755
H       5.47893761      2.35248886     -0.52924435
H      -5.79417912      0.00341243     -1.24625184
