9
c1ccsc1
C      -0.69449256     -0.72679957      0.01838917
C       0.72555401     -0.68361529      0.13091149
C       1.21226942      0.60187588      0.03727652
S      -0.03851634      1.74890381     -0.18512649
C      -1.23713877      0.52738721     -0.15681480
H      -1.28828747     -1.63146915      0.06358068
H       1.35837355     -1.55098293      0.27329733
H       2.24256640      0.92612287      0.08844007
H      -2.28032825      0.78857716     -0.26995397
