47
Nc1ccc(C2(c3ccc(N)c(Cl)c3)c3ccccc3-c3ccccc32)cc1Cl
N      -4.21591157     -3.83228658      0.48283345
C      -3.17063373     -2.91499656      0.27311996
C      -2.09632049     -2.89375608      1.16347936
C      -1.09431194     -1.92103890      1.05944854
C      -1.13747880     -0.92016932      0.06774597
C      -0.03242047      0.17314408     -0.00985994
C       1.40446501     -0.35810819      0.26958687
C       2.35507202      0.38823454      0.98993432
C       3.65405627     -0.09317533      1.20238594
C       4.07054348     -1.30877885      0.65722862
N       5.33789266     -1.81490539      0.99703349
C       3.12499615     -2.07246375     -0.04282322
Cl      3.54974220     -3.61662967     -0.69870241
C       1.82674992     -1.59589338     -0.25766748
C      -0.45368346      1.34186363      0.92690786
C      -0.67115593      1.31677278      2.30208208
C      -1.04820489      2.50043295      2.93866503
C      -1.20570453      3.68728619      2.20768547
C      -0.99007921      3.71079295      0.82685074
C      -0.61564781      2.53631338      0.19157169
C      -0.33931318      2.28190163     -1.20382804
C      -0.37501519      3.14214843     -2.29095745
C      -0.06873348      2.63595784     -3.55725218
C       0.26767848      1.28491440     -3.72799858
C       0.30461632      0.41649652     -2.63571541
C      -0.00016331      0.92171278     -1.37438176
C      -2.26641281     -0.90046033     -0.77278443
C      -3.26742344     -1.87390588     -0.66326186
Cl     -4.62162544     -1.78169612     -1.73801528
H      -4.81423407     -3.93415513     -0.33478486
H      -3.91917138     -4.72215494      0.86902362
H      -2.03142080     -3.63259416      1.95864101
H      -0.27892734     -1.95015191      1.78118841
H       2.10737461      1.36422785      1.40351022
H       4.34161556      0.50169614      1.79901692
H       6.04524716     -1.10172355      1.14043233
H       5.64371484     -2.55385025      0.36672630
H       1.13848027     -2.20593274     -0.83948745
H      -0.55141486      0.40391065      2.87628488
H      -1.22517260      2.50303937      4.01186736
H      -1.50305517      4.59847044      2.72174956
H      -1.11956001      4.63454725      0.27277587
H      -0.63588434      4.18864900     -2.17313429
H      -0.09230756      3.29627926     -4.42117463
H       0.50146893      0.91130715     -4.72244633
H       0.56124721     -0.62769709     -2.78040336
H      -2.39357326     -0.11357513     -1.51309692
