27
COc1ccc(CC(C)C=O)cc1
C       4.60060953      0.26938666      1.08920941
O       3.80864836     -0.69102777      0.40182381
C       2.52309630     -0.33270525      0.10380273
C       1.79184783     -1.30198864     -0.58558783
C       0.46443218     -1.06900443     -0.95214107
C      -0.15411862      0.14402792     -0.63017189
C      -1.59571356      0.39448523     -1.00644795
C      -2.59112087     -0.39240932     -0.14374866
C      -4.00031794     -0.29399715     -0.72413147
C      -2.55789463      0.12720963      1.28161990
O      -3.44915214      0.79395878      1.79881819
C       0.58233849      1.11619456      0.05851395
C       1.91244814      0.87916862      0.42402565
H       4.17927814      0.49604612      2.07417677
H       4.72464509      1.17914850      0.49250106
H       5.59305080     -0.16486039      1.24390603
H       2.26298892     -2.24798995     -0.84197137
H      -0.07755202     -1.84136942     -1.49326282
H      -1.71911037      0.12535783     -2.06384254
H      -1.81011218      1.46972771     -0.94372425
H      -2.31591158     -1.45318426     -0.09863071
H      -4.03884059     -0.73049139     -1.72761687
H      -4.71928446     -0.83051102     -0.09532266
H      -4.33355120      0.74753653     -0.79317436
H      -1.64980234     -0.12616003      1.85638272
H       0.12797002      2.07069470      0.31850818
H       2.44112871      1.66275623      0.95648606
