19
O=C(O)COc1cc(Cl)c(Cl)cc1Cl
O       4.19649080     -1.58525157      0.37073074
C       3.35598285     -0.70177284      0.28435173
O       3.67014035      0.61503042      0.34247862
C       1.87015422     -0.96587658      0.10300626
O       1.18657037      0.28745727      0.04114888
C      -0.17394677      0.27075542     -0.12137618
C      -0.94871552     -0.88748831     -0.23194690
C      -2.33847519     -0.79678005     -0.39627260
Cl     -3.22481128     -2.27514480     -0.52516983
C      -2.96171586      0.45473242     -0.45097235
Cl     -4.66759842      0.63280643     -0.65162832
C      -2.19596668      1.61550133     -0.34143830
C      -0.81257379      1.52160720     -0.17792104
Cl      0.09307654      2.98932764     -0.04688665
H       2.85893593      1.16358534      0.25434119
H       1.52691311     -1.54064402      0.96939803
H       1.74236441     -1.51229578     -0.83715474
H      -0.50239956     -1.87685103     -0.19423606
H      -2.67442552      2.59130150     -0.38319520
