43
CCCCCCCC(=O)Oc1ccc(NC(C)=O)cc1
C       7.35325981     -1.46130402      1.52347583
C       7.24723633     -0.00629446      1.09367406
C       6.12935484      0.25205794      0.08126116
C       4.72880170      0.01596641      0.65098768
C       3.64725831      0.38987348     -0.36523357
C       2.24655576      0.15182245      0.20011523
C       1.16676610      0.52544916     -0.81370964
C      -0.22499696      0.29358582     -0.26785992
O      -0.48718030     -0.13231814      0.84812386
O      -1.14048479      0.65249531     -1.25765456
C      -2.49935956      0.50770331     -0.94876966
C      -3.03928528     -0.71450445     -0.56045248
C      -4.41158626     -0.80802422     -0.31341454
C      -5.24788181      0.30748041     -0.47154147
N      -6.61942678      0.12444685     -0.19931388
C      -7.62919257      1.06581320     -0.28584780
C      -8.97170375      0.49728191      0.10230403
O      -7.51778351      2.24298528     -0.60827614
C      -4.68870264      1.51914990     -0.88647271
C      -3.31540315      1.61988375     -1.13142213
H       8.22717803     -1.59932055      2.16829217
H       6.47219166     -1.77809585      2.08903929
H       7.46468680     -2.12028091      0.65666721
H       7.10374508      0.62574873      1.97774379
H       8.20042695      0.29313832      0.64171115
H       6.20804555      1.29275828     -0.25697394
H       6.28080006     -0.37941011     -0.80269914
H       4.59736650      0.61151142      1.56242334
H       4.60946882     -1.03695138      0.92993017
H       3.78076145     -0.20314424     -1.27821183
H       3.75514349      1.44470553     -0.64572033
H       2.13666468     -0.90216514      0.48458506
H       2.11251476      0.74085604      1.11605660
H       1.28391963     -0.08095973     -1.71880002
H       1.25773839      1.58496111     -1.07783081
H      -2.40708254     -1.58887030     -0.43839206
H      -4.81412087     -1.76636231      0.00388079
H      -6.88816554     -0.80295245      0.10393409
H      -9.08378124     -0.52646908     -0.26627459
H      -9.06942698      0.50992867      1.19096575
H      -9.76573074      1.10543434     -0.34064032
H      -5.29449410      2.40831862     -1.03009545
H      -2.89409531      2.56559810     -1.45956427
