42
COC(CN(C)C(=O)Nc1nnc(C(C)(C)C)s1)OC
C      -5.77592646     -0.83250485     -0.55843677
O      -4.51873800     -0.77179793      0.09808693
C      -3.73973766      0.35670559     -0.29261209
C      -2.93647135      0.07736586     -1.59051120
N      -2.05851064     -1.10943096     -1.53477300
C      -2.56103303     -2.32165964     -2.15923441
C      -0.74929042     -1.10737957     -1.04696918
O       0.00983348     -2.04887906     -1.26420037
N      -0.41964158      0.01391989     -0.33324573
C       0.82409593      0.33338154      0.14881251
N       1.01115454      1.23254759      1.08903939
N       2.34739007      1.41212669      1.38153424
C       3.13310512      0.65927654      0.63444480
C       4.65153624      0.63372967      0.72687402
C       5.15099588     -0.77779153      1.08626793
C       5.12497422      1.60152739      1.83305582
C       5.28420291      1.08585285     -0.60209027
S       2.26185726     -0.31195246     -0.49547706
O      -2.80431591      0.71356969      0.73539810
C      -3.45252583      1.08700991      1.94514003
H      -6.38242454      0.04192171     -0.30360470
H      -6.29934365     -1.72832090     -0.21352376
H      -5.65153025     -0.90085125     -1.64251715
H      -4.38630386      1.22724824     -0.46648837
H      -2.30682451      0.94651898     -1.81513214
H      -3.62037370     -0.05620831     -2.43594701
H      -1.92638759     -3.18709530     -1.95151433
H      -2.60236768     -2.16404437     -3.24104805
H      -3.56528704     -2.53331109     -1.78337078
H      -1.17310460      0.45319764      0.18522113
H       4.69255413     -1.13674422      2.01535857
H       6.23836792     -0.78828306      1.22468631
H       4.91831824     -1.50649096      0.30167376
H       4.71505259      1.32243383      2.81110486
H       4.81100479      2.63139472      1.62497461
H       6.21765384      1.60092588      1.92055301
H       5.05250602      0.39584170     -1.42119058
H       4.92362952      2.07872860     -0.89612930
H       6.37624532      1.13735784     -0.52188310
H      -2.68661816      1.40821722      2.65631302
H      -3.98814912      0.23704746      2.37764590
H      -4.13957241      1.92117622      1.77371442
