28
C1CCC2CCCCC2C1
C       2.33026473     -1.23866901      0.12002018
C       2.62925498      0.24981748     -0.03261894
C       1.50512314      1.11555080      0.53267564
C       0.15090372      0.74984561     -0.08868325
C      -0.97629755      1.61030322      0.49678001
C      -2.33026548      1.23867033     -0.10437316
C      -2.62925499     -0.24981905      0.04824538
C      -1.50512009     -1.11554683     -0.51705129
C      -0.15090410     -0.74984532      0.10431740
C       0.97629940     -1.61030757     -0.48113455
H       2.34093938     -1.50451543      1.18428448
H       3.12064645     -1.82449080     -0.36265158
H       2.77066446      0.48534090     -1.09468217
H       3.57008898      0.49046108      0.47510587
H       1.46376802      0.98983629      1.62208698
H       1.73165988      2.17135249      0.34255362
H       0.20809462      0.95845582     -1.16692252
H      -1.01663829      1.48437493      1.58620509
H      -0.77529137      2.67119735      0.30629976
H      -3.12064498      1.82448297      0.37831270
H      -2.34094749      1.50453506     -1.16863264
H      -3.57008485     -0.49045660     -0.45948885
H      -2.77067464     -0.48535685      1.11030401
H      -1.73165675     -2.17135068     -0.32694200
H      -1.46375984     -0.98982141     -1.60646105
H      -0.20810409     -0.95845462      1.18255614
H       0.77529213     -2.67119941     -0.29064376
H       1.01664462     -1.48439076     -1.57056040
