28
CC(CCCCO[N+](=O)O)O[N+](=O)O
C      -3.09895950      2.05783549      0.20789361
C      -2.22686483      0.81374439      0.05931079
C      -0.75252456      1.22156645     -0.09487686
C       0.16157069      0.01015337     -0.31219225
C       1.61577618      0.43974415     -0.49778494
C       2.53552985     -0.75846617     -0.71128658
O       3.86283026     -0.27304074     -0.87813895
N       4.76163048     -1.35891528     -1.07714412
O       4.33454831     -2.70834890     -1.11357987
O       6.13549877     -1.11123946     -1.25038996
O      -2.33823020      0.01536093      1.23735131
N      -3.47651928     -0.84069296      1.18932258
O      -4.37356654     -0.87488382      0.09525148
O      -3.74484246     -1.70511630      2.26653324
H      -4.15335455      1.78799833      0.32429598
H      -2.82137695      2.62489100      1.10344055
H      -3.00680660      2.71262352     -0.66411073
H      -2.51679395      0.24731577     -0.83383672
H      -0.64871133      1.91180694     -0.94094088
H      -0.42095802      1.75164424      0.80721425
H       0.09062210     -0.67067494      0.54429056
H      -0.17212584     -0.54621620     -1.19644562
H       1.70407044      1.12159271     -1.35292058
H       1.95814006      1.00830078      0.37600676
H       2.49094680     -1.42192818      0.16026086
H       2.22749188     -1.30858180     -1.60807112
H       6.42333810     -2.03281213     -1.35416346
H      -4.55035929     -2.11366120      1.90981204
