24
CCC(O)C(C)(C)C
C       2.94459577     -0.31845272      0.41556963
C       1.54852452     -0.61025691     -0.12504403
C       0.49853465      0.37130206      0.42271353
O       0.86663242      1.69980583      0.04008393
C      -0.97513373      0.07975630     -0.00271056
C      -1.90130597      1.15134698      0.61294724
C      -1.42787158     -1.29788331      0.51690629
C      -1.15889483      0.11530458     -1.53149374
H       3.65806514     -1.05423239      0.03086931
H       2.95976163     -0.37130493      1.50881049
H       3.29147614      0.67433820      0.11274035
H       1.59663187     -0.54587531     -1.21776056
H       1.28870920     -1.64001279      0.13814610
H       0.54851592      0.34812945      1.51886821
H       0.98417147      1.71476161     -0.92452846
H      -1.66925992      2.15262581      0.23391258
H      -2.95263766      0.94939169      0.37739820
H      -1.80528738      1.17439762      1.70431709
H      -1.26731227     -1.38453275      1.59724559
H      -2.49539044     -1.45981339      0.32710952
H      -0.88913244     -2.11545351      0.02749098
H      -0.87390692      1.08529178     -1.95184304
H      -2.20625850     -0.06134556     -1.80357053
H      -0.56322709     -0.65728836     -2.02817812
