38
CCCCCCCCCC(=O)OCC
C       5.78109134      1.84196206     -0.10395016
C       5.75399545      0.32320091     -0.18057443
C       4.56737893     -0.30438338      0.55398052
C       3.21498656      0.03787530     -0.07520107
C       2.07345169     -0.69551342      0.63280240
C       0.72016953     -0.35562996      0.00593875
C      -0.42086247     -1.08611404      0.71580947
C      -1.77324932     -0.74832038      0.08832770
C      -2.91025463     -1.47356817      0.79783185
C      -4.23200497     -1.15443528      0.14985629
O      -4.78860055     -1.87448319     -0.66755307
O      -4.69765602      0.04699777      0.58921801
C      -5.94785414      0.43854094      0.00983145
C      -6.33416295      1.78719304      0.58502063
H       6.69916678      2.22446014     -0.56154839
H       4.93597390      2.28622250     -0.63776102
H       5.75326168      2.18359091      0.93560728
H       6.67967912     -0.06367136      0.26205794
H       5.75074661      0.01053552     -1.23118680
H       4.69939764     -1.39346972      0.54964107
H       4.57728161      0.01045672      1.60461555
H       3.03662084      1.11751747     -0.01816274
H       3.22385333     -0.23525585     -1.13731273
H       2.24155965     -1.77793779      0.57791911
H       2.06537760     -0.42268276      1.69512026
H       0.55219899      0.72694986      0.05884382
H       0.72798433     -0.63012372     -1.05593403
H      -0.25232075     -2.16866802      0.66457581
H      -0.42947407     -0.80992317      1.77724541
H      -1.76867159     -1.02165871     -0.97428136
H      -1.94068522      0.33512044      0.13082549
H      -2.95906763     -1.20463094      1.85931925
H      -2.76668859     -2.55955628      0.75658618
H      -6.71698312     -0.30244981      0.25479792
H      -5.84296258      0.51723502     -1.07802320
H      -5.56521766      2.53483373      0.36380005
H      -7.28778892      2.12851396      0.17268580
H      -6.41967043      1.73126969      1.67529984
