47
OCC(O)C(O)C(OC1OC(CO)C(O)C(O)C1O)C(O)CO
O      -3.74248091      2.34731451      0.15834865
C      -3.22369078      1.06463522      0.52014836
C      -2.96525278      0.26687615     -0.76298252
O      -2.05133473      1.02211689     -1.57260309
C      -2.47051340     -1.16982332     -0.48366568
O      -2.55278447     -1.91338836     -1.71307723
C      -1.05663219     -1.30063823      0.15773378
O      -0.03498963     -0.97770119     -0.79648321
C       0.65375270      0.24129783     -0.50460526
O       1.52094766      0.04865127      0.61786641
C       2.16384964      1.27867933      1.04126891
C       1.33438671      1.89096466      2.17550629
O       1.22210932      0.94965630      3.24789724
C       2.44838394      2.26230679     -0.11165063
O       1.34507198      3.15264545     -0.33120637
C       2.69458547      1.47366162     -1.39499059
O       2.98071842      2.39148343     -2.46256822
C       1.47112072      0.62292220     -1.76024171
O       1.95854168     -0.54776426     -2.45056612
C      -0.81520547     -2.75485368      0.63697306
O      -1.04947062     -3.69547049     -0.42926933
C       0.60679499     -2.98293318      1.16035948
O       0.69731016     -4.33896984      1.61243451
H      -3.89226557      2.83975820      0.98542330
H      -3.95197663      0.56003113      1.16239951
H      -2.29791607      1.23812211      1.07631618
H      -3.89329946      0.21344730     -1.34637531
H      -2.48023460      1.89613467     -1.67025120
H      -3.19656966     -1.63555062      0.19471106
H      -1.96361359     -2.69192040     -1.60265887
H      -0.98690291     -0.65248229      1.03987014
H      -0.06206129      1.03120891     -0.26082676
H       3.12285729      0.94265686      1.45397343
H       0.31521122      2.12194006      1.85228026
H       1.79991168      2.80012887      2.56643988
H       1.13656215      0.07328829      2.82840362
H       3.30461144      2.89920109      0.13696223
H       1.56906554      3.63477911     -1.15588877
H       3.58509102      0.84502632     -1.27285979
H       3.10220591      1.83379352     -3.25674401
H       0.81761504      1.13103913     -2.47829033
H       1.23299136     -1.20188859     -2.35092530
H      -1.53788291     -3.00584669      1.42265041
H      -0.67445121     -4.53906203     -0.09899986
H       1.35060267     -2.85710265      0.36737348
H       0.83574626     -2.31984274      1.99919435
H       1.62948390     -4.48852864      1.85319562
