28
c1ccc(C2CCCCC2)cc1
C       3.99558920      0.36957770      0.00228068
C       3.08103572      1.41703832      0.07920431
C       1.71091976      1.15757591      0.00417276
C       1.23670688     -0.15423811     -0.14894390
C      -0.24810035     -0.46269867     -0.23308738
C      -0.90006332      0.19231302     -1.46334199
C      -2.39096565     -0.13148484     -1.54397409
C      -3.12057228      0.25097142     -0.25952324
C      -2.47895720     -0.39266087      0.96623346
C      -0.98842378     -0.06995546      1.05737649
C       2.17094588     -1.19852086     -0.22484863
C       3.54083508     -0.93791818     -0.14970690
H       5.06150515      0.57202468      0.06071607
H       3.43343899      2.43821228      0.19781202
H       1.01632823      1.99190310      0.06663209
H      -0.36207849     -1.55011237     -0.35022310
H      -0.77679344      1.28228809     -1.43203207
H      -0.40424626     -0.15148076     -2.37964101
H      -2.83722928      0.39864550     -2.39291542
H      -2.52172775     -1.20409622     -1.73300052
H      -4.17103730     -0.05337172     -0.32801117
H      -3.11056789      1.34198573     -0.14565675
H      -2.98676658     -0.04520822      1.87303958
H      -2.61476440     -1.48024969      0.92115646
H      -0.55480618     -0.59836824      1.91550717
H      -0.87114139      1.00225147      1.25946169
H       1.83845555     -2.22738126     -0.34355728
H       4.25248110     -1.75704176     -0.20998641
