39
CCOC(=O)N(C)C(=O)CSP(=S)(OCC)OCC
C       5.47688994      0.29781915     -0.88558312
C       5.23352025     -0.79824252      0.13479443
O       3.88098759     -1.27162039      0.04044020
C       2.94325996     -0.57549576      0.74579183
O       3.21838390      0.39386267      1.44378848
N       1.66207156     -1.08729883      0.57540718
C       1.50518800     -2.39189324     -0.04497938
C       0.59278799     -0.62171457      1.33130693
O      -0.27345449     -1.38251475      1.77374383
C       0.52799572      0.88082973      1.59702694
S      -1.16487823      1.50612473      1.34663693
P      -1.61226898      0.90333448     -0.62682099
S      -0.28445715      1.25241570     -2.01504125
O      -1.97257982     -0.68029628     -0.60963284
C      -3.08221076     -1.14283623      0.14189689
C      -3.11338344     -2.65630544      0.07226512
O      -3.07488995      1.50603628     -1.00554471
C      -3.25759422      2.91177302     -1.04059445
C      -4.62385409      3.20259530     -1.62792845
H       6.52137877      0.62103839     -0.86550506
H       4.83896924      1.16553883     -0.69080134
H       5.23535124     -0.05496940     -1.89362521
H       5.88521559     -1.65150736     -0.08005307
H       5.46856664     -0.46262581      1.15124980
H       0.44976181     -2.62696861     -0.21202173
H       2.01898382     -2.41153461     -1.01100708
H       1.94457470     -3.15153090      0.60958586
H       1.16623017      1.44278080      0.91324701
H       0.84026841      1.07357459      2.62700076
H      -4.00600027     -0.73674718     -0.28092571
H      -2.99875988     -0.81979447      1.18262636
H      -2.19062420     -3.08155603      0.47950719
H      -3.18670476     -2.99338332     -0.96686288
H      -3.96297665     -3.05490251      0.63391914
H      -2.48280046      3.38320274     -1.65173082
H      -3.19939375      3.31176392     -0.02421060
H      -4.70169219      2.79725524     -2.64222704
H      -4.81271726      4.27909595     -1.66235961
H      -5.40914476      2.72469672     -1.03286894
