50
C1=CC2C3C=CC(C3)C2C1.C=C(C)C.Cc1ccc(O)cc1
C      -2.40620495      0.13065378     -0.14486892
C      -1.76904547     -1.04400620     -0.13272797
C      -0.33582925     -0.92024531     -0.54274474
C       0.70614989     -1.19145091      0.57337138
C       2.07795448     -1.00222351     -0.04123714
C       2.23031506      0.31219314     -0.27059945
C       0.96122731      0.99847189      0.19303038
C       0.65491394      0.10198849      1.39827338
C      -0.15789311      0.61430331     -0.81178803
C      -1.52029013      1.26651679     -0.54095500
C      -0.38348414      1.49559531     -0.11808408
C      -0.05107110      0.19917836     -0.01572506
C      -1.08380530     -0.87665021      0.15840486
C       1.37622200     -0.26378078     -0.06836154
C      -2.47095048      0.10266788      0.01659484
C      -0.97346913      0.02889259     -0.03214843
C      -0.19351086      0.96974786      0.65397138
C       1.20081042      0.88428027      0.63572794
C       1.81341649     -0.15131288     -0.06202307
O       3.17086996     -0.27327753     -0.10577590
C       1.05555442     -1.10080360     -0.73578250
C      -0.33742366     -1.01466541     -0.71702368
H      -3.44951139      0.26012309      0.11092452
H      -2.22997864     -1.98686610      0.12994572
H      -0.14539617     -1.51334876     -1.44489777
H       0.58094833     -2.10985605      1.14863478
H       2.77249941     -1.78903446     -0.29297871
H       3.07300837      0.79348556     -0.74326343
H       1.07158360      2.05997947      0.41777315
H      -0.31627142      0.29821937      1.86231567
H       1.42429144      0.14814996      2.18067599
H       0.15697847      0.80827402     -1.84528697
H      -1.47216957      2.02526503      0.24621623
H      -1.90728019      1.73940740     -1.44981307
H      -1.41844456      1.82196029     -0.07901737
H       0.36987354      2.26748555     -0.24386406
H      -0.91314843     -1.41890483      1.09405805
H      -2.10032888     -0.47037844      0.18849955
H      -1.03345555     -1.58915041     -0.67130528
H       1.64156147     -0.78246296      0.85855463
H       1.52124314     -0.95268015     -0.90681024
H       2.07483781      0.56978826     -0.19634946
H      -2.91221373     -0.30736220     -0.89793660
H      -2.80816872      1.14101423      0.10212805
H      -2.84557032     -0.46316336      0.87507261
H      -0.66976879      1.77640171      1.20681384
H       1.78467545      1.62674769      1.16978411
H       3.56133458      0.45529496      0.40354928
H       1.54673570     -1.90761916     -1.27181914
H      -0.92232131     -1.76684306     -1.24113272
