42
CN(C)CCOC(C)(c1ccccc1)c1ccccn1
C       5.08339797      0.30836583      0.66659896
N       3.81346180     -0.18608474      1.20583065
C       3.79851708     -1.65021988      1.16587403
C       2.68891603      0.39348867      0.44739748
C       1.30811438      0.14818170      1.07762251
O       0.32997233      0.84715077      0.29944777
C      -1.05903316      0.47138769      0.52170897
C      -1.35569332      0.53961160      2.04045458
C      -1.31955468     -0.91015098     -0.11307278
C      -0.65874671     -1.27979589     -1.30249391
C      -0.88404789     -2.52080294     -1.90212858
C      -1.78524448     -3.41468918     -1.33281233
C      -2.46611250     -3.06408572     -0.17041207
C      -2.24035180     -1.82221655      0.43082791
C      -1.95224161      1.52686303     -0.18479346
C      -1.45170958      2.30713970     -1.23221479
C      -2.28858685      3.22091244     -1.86917034
C      -3.60895247      3.33594122     -1.45885393
C      -4.04071955      2.52734956     -0.42390288
N      -3.25270605      1.63430253      0.21385661
H       5.22541060      0.02551745     -0.38285730
H       5.13495263      1.40042244      0.74067093
H       5.92685989     -0.08213618      1.24707373
H       3.82307127     -2.03649253      0.14049218
H       4.66120401     -2.05779493      1.70558128
H       2.91310230     -2.05146918      1.66842769
H       2.68493402      0.03559292     -0.59129387
H       2.81893915      1.48250972      0.38129269
H       1.08267291     -0.92167340      1.10206855
H       1.30324967      0.54216103      2.09955385
H      -2.41844893      0.42220702      2.27878298
H      -0.82192011     -0.24174164      2.59356238
H      -1.03106782      1.50270290      2.45343840
H       0.04233895     -0.59292330     -1.77270039
H      -0.36025547     -2.78433420     -2.81700671
H      -1.96639290     -4.37864545     -1.80025047
H      -3.18406824     -3.75323198      0.26692620
H      -2.81185692     -1.57559613      1.32201660
H      -0.42038827      2.20800870     -1.55583505
H      -1.90958905      3.83384356     -2.68165230
H      -4.28578189      4.03535930     -1.93543381
H      -5.06564473      2.57506502     -0.06779132
