29
CCCCC(CC)CO[N+](=O)[O-]
C       3.92440898      0.16569055      0.70173754
C       2.49368338     -0.35070132      0.71729844
C       1.82677619     -0.18467339     -0.64844586
C       0.42230815     -0.79488736     -0.72042455
C      -0.62071655     -0.21469586      0.25798378
C      -0.78600879      1.31887932      0.16585958
C      -1.24673565      1.83992743     -1.18839200
C      -1.95917821     -0.96259762      0.07718255
O      -2.89521526     -0.48600654      1.04045102
N      -4.15738824     -1.11683303      0.93352748
O      -4.96845510     -0.70121047      1.75879598
O      -4.28864249     -1.97583145      0.06011511
H       4.38294622      0.04094798      1.68770548
H       4.53159650     -0.38139415     -0.02650597
H       3.95432468      1.22944177      0.44500316
H       1.93417172      0.19483555      1.48443292
H       2.49653699     -1.40840460      1.00467357
H       1.79451545      0.87572148     -0.92266455
H       2.44644641     -0.67672358     -1.40906487
H       0.05632138     -0.69285669     -1.74975270
H       0.50941033     -1.87476199     -0.54091499
H      -0.28585706     -0.42169173      1.28330632
H      -1.50115657      1.65390198      0.92717401
H       0.16177053      1.80519930      0.42409991
H      -2.23067256      1.44591144     -1.45779382
H      -0.53922021      1.58344110     -1.98177841
H      -1.32660238      2.93166385     -1.15797548
H      -2.34137265     -0.80692232     -0.93903083
H      -1.78799517     -2.03536964      0.23500482
