41
Clc1ccc2c(c1)CCc1cccnc1C2=C1CCNCC1
Cl     -4.66056823     -3.64274662     -0.39159354
C      -3.28569391     -2.60949625     -0.45975992
C      -2.38483543     -2.72820207     -1.51639532
C      -1.27036997     -1.89036982     -1.57227084
C      -1.05284110     -0.94218268     -0.56372963
C      -1.97412161     -0.80810580      0.48991304
C      -3.08999003     -1.65450853      0.53908892
C      -1.76201320      0.26751965      1.52681612
C      -1.95844044      1.67481694      0.94816170
C      -1.04652656      2.17453597     -0.15491299
C      -1.18792656      3.52325493     -0.52897950
C      -0.42903836      4.05626344     -1.56386323
C       0.45529806      3.22091952     -2.21323889
N       0.62702619      1.92333858     -1.89314187
C      -0.10787622      1.41339641     -0.86688942
C       0.11774656     -0.03402082     -0.60230251
C       1.35481169     -0.52093965     -0.30686246
C       1.66746261     -1.97558377      0.02734059
C       2.41480766     -2.09906693      1.36368083
N       3.64679870     -1.30355491      1.39372782
C       3.35051720      0.10739887      1.11957131
C       2.62512954      0.31817138     -0.21949732
H      -2.54428792     -3.46504365     -2.29873114
H      -0.57014779     -1.97593546     -2.40062847
H      -3.81131126     -1.56550572      1.34743054
H      -0.76676746      0.16260614      1.97707365
H      -2.47413680      0.12665684      2.34998750
H      -1.87110002      2.37780826      1.78772493
H      -2.98940266      1.75240644      0.57553522
H      -1.90447972      4.16189168     -0.01640736
H      -0.53394684      5.09332307     -1.86100309
H       1.06793213      3.57959578     -3.03495318
H       2.28477884     -2.39147593     -0.77971882
H       0.77626803     -2.60509084      0.08980726
H       1.75799712     -1.80045181      2.19073611
H       2.67637794     -3.15030623      1.52809145
H       4.07771257     -1.38375178      2.31364947
H       4.29475563      0.66308681      1.10223565
H       2.75076097      0.52491768      1.93857710
H       3.28779093      0.03386191     -1.04704818
H       2.44184972      1.39056897     -0.31722153
