40
CCOC(=O)CNC(=O)COC(=O)c1ccccc1OC(C)=O
C       3.82729451      0.22017841      3.57495778
C       4.59975433      0.26694823      2.27022886
O       4.05232122     -0.65110661      1.31487511
C       2.97913703     -0.19775359      0.60749254
O       2.41480436      0.87482305      0.78798046
C       2.55203732     -1.23795137     -0.41717115
N       1.68698398     -0.63716605     -1.41526039
C       1.32728760     -1.30551231     -2.56139077
O       1.82489951     -2.37773996     -2.89382526
C       0.27782073     -0.58683755     -3.41557602
O      -1.04984271     -0.68578189     -2.89337964
C      -1.32637989      0.15404837     -1.86198521
O      -0.53272618      0.95602183     -1.38879706
C      -2.71395901     -0.04462822     -1.36054422
C      -3.59878998     -0.93012660     -1.99553949
C      -4.91135603     -1.08003966     -1.53419007
C      -5.35687981     -0.34708892     -0.43585246
C      -4.49021190      0.52901829      0.21228229
C      -3.17392550      0.66218097     -0.23778272
O      -2.36737432      1.57661109      0.45180778
C      -1.48947768      0.96372503      1.34484731
C      -0.55509129      1.99626233      1.90003888
O      -1.46423108     -0.22379063      1.64245412
H       4.30266537      0.85581831      4.32508366
H       2.79786365      0.56349557      3.43744455
H       3.77212697     -0.80194063      3.96284544
H       4.63153627      1.28401636      1.86150048
H       5.63686186     -0.03689147      2.44784355
H       1.99099382     -2.03100867      0.09073575
H       3.42571188     -1.66383389     -0.91977438
H       1.13185082      0.17418911     -1.12968100
H       0.27485989     -1.05109689     -4.40814278
H       0.56965234      0.46046849     -3.56414854
H      -3.28794609     -1.51574645     -2.85814893
H      -5.58861042     -1.76426528     -2.04530322
H      -6.38050344     -0.46081315     -0.08503358
H      -4.83632669      1.10175312      1.06822450
H      -1.11544575      2.77799139      2.41400350
H       0.12271601      1.52382398      2.61661148
H       0.03989829      2.42569671      1.09026888
