22
NC(=O)C=Cc1ccccc1[N+](=O)[O-]
N       3.77219857     -0.08708409      1.73864563
C       3.07189817     -0.68152612      0.73762277
O       3.59385614     -1.44546545     -0.06057920
C       1.64067591     -0.30914385      0.70861065
C       0.88455719     -0.67823952     -0.33606448
C      -0.54866729     -0.37686290     -0.43229804
C      -1.43424670     -1.46323087     -0.47648323
C      -2.81592993     -1.26080457     -0.58356751
C      -3.33918558      0.03086172     -0.65672219
C      -2.48227219      1.12818107     -0.62554518
C      -1.10226227      0.90974972     -0.51464785
N      -0.24914889      2.07695135     -0.50967524
O       0.07801281      2.52836890      0.59706564
O       0.05958867      2.55339336     -1.60911592
H       4.76932066     -0.25494303      1.76599445
H       3.39099195      0.63234322      2.33604738
H       1.24301764      0.24560881      1.54939086
H       1.30843657     -1.25954006     -1.15429713
H      -1.05598712     -2.48372360     -0.42452838
H      -3.48524028     -2.11857373     -0.61323711
H      -4.41351118      0.17795561     -0.74382249
H      -2.88610285      2.13572404     -0.69279342
