23
O=C(CCCCl)c1ccc(F)cc1
O       0.76170237      0.11318336     -1.85525752
C       0.39888871     -0.21098463     -0.72597093
C       1.32999428     -0.91428575      0.24806974
C       2.77585323     -0.98891531     -0.25477007
C       3.49299577      0.35755890     -0.32956752
Cl      3.69974986      1.08376173      1.28386911
C      -1.00492196      0.07940903     -0.29945613
C      -1.52773120     -0.37315675      0.92055606
C      -2.84839486     -0.07446107      1.27020977
C      -3.64094093      0.67024977      0.40397783
F      -4.90476675      0.95206766      0.74455816
C      -3.14037873      1.12379297     -0.80953629
C      -1.82197348      0.82790676     -1.16270452
H       1.29372927     -0.40936185      1.21783220
H       0.95948070     -1.93836566      0.37498145
H       2.79107729     -1.44642142     -1.25182436
H       3.34119810     -1.66164438      0.40235482
H       4.49388024      0.22293034     -0.75082562
H       2.95953628      1.07899734     -0.95323617
H      -0.93482959     -0.96133046      1.61473779
H      -3.26466780     -0.41870892      2.21234749
H      -3.77540174      1.70276235     -1.47286985
H      -1.43407907      1.18501600     -2.11553240
