28
O=C(O)CCCNC(=O)c1ccccc1
O       1.60884646     -1.64872642     -0.11209712
C       2.74512735     -1.30643822      0.17189202
O       3.48665046     -2.02839622      1.03346149
C       3.48611141     -0.09446591     -0.32607896
C       2.74711120      0.67330311     -1.42502521
C       1.58918275      1.52682490     -0.90754831
N       0.40201645      0.75412620     -0.62029360
C      -0.77112601      1.37806005     -0.24863443
O      -0.89298548      2.59801865     -0.20518874
C      -1.90653024      0.49372631      0.14488294
C      -2.91955341      1.03534348      0.94803312
C      -4.00457257      0.24978043      1.34187524
C      -4.08788425     -1.07907556      0.92945037
C      -3.09152928     -1.62218028      0.11878314
C      -2.00376173     -0.83899354     -0.27734013
H       2.91042429     -2.77567268      1.29842761
H       3.69750953      0.56238023      0.52441078
H       4.43931811     -0.44654693     -0.73816637
H       3.47184838      1.34911720     -1.89602594
H       2.39493512     -0.01404508     -2.20374657
H       1.87267048      2.07480089     -0.00182181
H       1.31775300      2.27052316     -1.66610157
H       0.51228238     -0.23692543     -0.41549648
H      -2.86361900      2.07355871      1.26985436
H      -4.78456290      0.67742898      1.96669216
H      -4.93443831     -1.68976653      1.23352120
H      -3.16462984     -2.65518922     -0.21244126
H      -1.25659432     -1.28057029     -0.93057374
