37
CCCCCC(=O)OC(=O)CCCCC
C      -6.14332592      0.73059160      1.13890882
C      -5.61522047      0.11866558     -0.14881901
C      -4.12564974     -0.20937573     -0.04346088
C      -3.60053545     -0.82779997     -1.34280176
C      -2.11850300     -1.19293576     -1.25797633
C      -1.20437097      0.01644958     -1.24858293
O      -1.53444710      1.12309509     -1.64482839
O       0.01719959     -0.37824073     -0.79817710
C       0.93578186      0.59520246     -0.55232194
O       0.75642564      1.80214387     -0.51408299
C       2.26423828     -0.07507248     -0.26340687
C       3.40357482      0.93752735     -0.14862027
C       4.78229505      0.28790899     -0.00459591
C       4.95053088     -0.49539373      1.29782175
C       6.36788835     -1.02761543      1.44540459
H      -7.20968444      0.95706396      1.04146781
H      -6.01771229      0.04219492      1.98072804
H      -5.61843746      1.66180502      1.37486719
H      -6.18255212     -0.79213142     -0.37300416
H      -5.78466368      0.81857580     -0.97532887
H      -3.56819688      0.70493125      0.19068063
H      -3.96229597     -0.90742317      0.78669225
H      -4.17020764     -1.74040249     -1.55729445
H      -3.77457276     -0.13983086     -2.17891309
H      -1.84475038     -1.79860882     -2.12927801
H      -1.93947891     -1.78667687     -0.35418608
H       2.15605165     -0.63667658      0.67013556
H       2.47932814     -0.77340829     -1.08028626
H       3.22074734      1.60808316      0.70034961
H       3.41438039      1.57144439     -1.04452981
H       5.53972600      1.08057581     -0.04650146
H       4.96918054     -0.37178432     -0.86072354
H       4.25474047     -1.34067060      1.32658212
H       4.71792713      0.14904975      2.15335880
H       7.09498653     -0.20943665      1.46112270
H       6.62270904     -1.69867337      0.61890294
H       6.46689348     -1.58742422      2.38069731
