41
COC(=O)c1ccccc1S(=O)(=O)NC(=O)Nc1nc(C)cc(C)n1
C      -2.39007460      0.27897872     -3.34868983
O      -3.06227735     -0.00541730     -2.12210337
C      -2.24984028      0.02093528     -1.03928378
O      -1.06719142      0.31410474     -1.00882701
C      -3.03159523     -0.36579052      0.15008041
C      -4.19843072      0.35710777      0.44441561
C      -4.93514621      0.06354220      1.59329392
C      -4.51123086     -0.94748065      2.45456636
C      -3.35420834     -1.67323296      2.16681923
C      -2.60962255     -1.37907155      1.01614143
S      -1.20573089     -2.38809543      0.62361690
O      -1.16842609     -3.49799787      1.55283101
O      -1.25417898     -2.65255861     -0.79993709
N       0.08388149     -1.40467788      0.91591025
C       0.40461950     -0.81193738      2.12755751
O      -0.25137445     -1.00583631      3.14495688
N       1.47192617      0.02740350      2.17395684
C       2.32310420      0.40213383      1.15423994
N       3.29179763      1.25701405      1.50694842
C       4.13579353      1.66061781      0.53483105
C       5.22343621      2.61781532      0.92018265
C       4.02128662      1.22774657     -0.77141769
C       2.99344413      0.34787496     -1.04063527
C       2.77997211     -0.17148767     -2.43035128
N       2.14304296     -0.07692343     -0.08517677
H      -1.99737277      1.30058940     -3.34065634
H      -3.11634486      0.19290508     -4.16157766
H      -1.58653494     -0.44352403     -3.52423142
H      -4.53232642      1.15565843     -0.21495081
H      -5.83784076      0.62639533      1.82006733
H      -5.08299815     -1.17504110      3.35179273
H      -3.03691546     -2.46331359      2.84619234
H       0.55832583     -1.05997449      0.07663762
H       1.67684492      0.43779428      3.06937241
H       6.20448160      2.17931597      0.71267448
H       5.12077227      3.55228947      0.35983671
H       5.17477295      2.85383285      1.98815111
H       4.70131453      1.56260960     -1.54476143
H       2.58494912      0.65732116     -3.11794608
H       3.66391013     -0.72063161     -2.76909471
H       1.92198542     -0.85099397     -2.46463029
