27
Cc1[nH]c(=O)n(C(C)(C)C)c(=O)c1Cl
C       4.02632327      0.65485515     -0.44595207
C       2.57746521      0.26954353     -0.35950649
N       1.93493192      0.65653201      0.78575118
C       0.59853254      0.49710221      1.03682545
O       0.19563568      0.79190321      2.15889800
N      -0.17133223      0.00044513     -0.00719809
C      -1.65852738     -0.13837005      0.18048154
C      -2.40852770     -0.23224487     -1.17645889
C      -1.98179336     -1.38942225      1.01768383
C      -2.27703119      1.10376835      0.87809038
C       0.46845349     -0.78080655     -0.97076087
O      -0.05233621     -1.72909689     -1.55589096
C       1.89115679     -0.42982157     -1.27153787
Cl      2.56556714     -1.02551457     -2.73931258
H       4.51037221      0.32746280     -1.36958360
H       4.58412577      0.21706858      0.38912247
H       4.12951656      1.74422938     -0.39263100
H       2.45207703      1.09393687      1.54143444
H      -2.08265095      0.56065271     -1.85926784
H      -3.49237774     -0.13239478     -1.04138579
H      -2.26725200     -1.19315286     -1.67799170
H      -1.61674118     -2.30176558      0.53420558
H      -3.06232043     -1.49983046      1.16304677
H      -1.51621496     -1.33927867      2.00790728
H      -3.37222055      1.09072127      0.81997061
H      -2.04589556      1.15267575      1.94547599
H      -1.92893619      2.03080214      0.40858424
