72
CC(C)(C)c1cc(-c2cc(C(C)(C)C)cc(C(C)(C)C)c2O)c(O)c(C(C)(C)C)c1
C       4.52450552     -0.17501929     -2.92818423
C       3.54771415     -1.23961542     -2.38265934
C       2.62244558     -1.64743801     -3.55213279
C       4.34276037     -2.49791988     -1.97082175
C       2.79722205     -0.67959278     -1.15944157
C       1.40278762     -0.57186258     -1.11419220
C       0.73509094     -0.05803172      0.01023894
C      -0.73598733      0.03854693     -0.02451834
C      -1.49270907     -1.11927505      0.22251009
C      -2.89194646     -1.10085830      0.22236839
C      -3.73916445     -2.35918347      0.49117023
C      -4.62493906     -2.13361412      1.73573862
C      -4.63919996     -2.65098596     -0.72925296
C      -2.90331767     -3.63284833      0.75270250
C      -3.52218670      0.13576844     -0.03760723
C      -2.81766737      1.33297553     -0.29364501
C      -3.56911583      2.65650770     -0.57495601
C      -3.22121970      3.18447968     -1.98492270
C      -5.11408120      2.51864688     -0.53881528
C      -3.21128789      3.71883663      0.48908940
C      -1.41106288      1.25027623     -0.28086471
O      -0.68992668      2.39368109     -0.51750283
C       1.49685288      0.35793499      1.12232459
O       0.86432185      0.87165958      2.22643914
C       2.90324575      0.27343403      1.13757099
C       3.74924954      0.72438312      2.35279663
C       5.27617955      0.53205258      2.15738640
C       3.37359424     -0.09649018      3.60698733
C       3.54001721      2.23079689      2.62715786
C       3.51606595     -0.25133461     -0.02193668
H       3.99387271      0.74633873     -3.19581125
H       5.04107981     -0.53529584     -3.82562359
H       5.29835177      0.09129134     -2.20025467
H       2.04302644     -0.79431252     -3.92463052
H       1.91994983     -2.43544726     -3.25594992
H       3.20277936     -2.03574135     -4.39769826
H       3.67919443     -3.26427384     -1.55243796
H       5.10710175     -2.27811645     -1.21742449
H       4.85960359     -2.93805865     -2.83162894
H       0.79442379     -0.88309906     -1.96082858
H      -0.94995423     -2.04106324      0.42104888
H      -5.21257186     -3.02892263      1.97048058
H      -4.01534065     -1.89466655      2.61534845
H      -5.33621991     -1.31215870      1.59652289
H      -5.22463115     -3.56561870     -0.57850841
H      -5.35321012     -1.84294216     -0.92243017
H      -4.04024326     -2.78444934     -1.63804804
H      -2.26027777     -3.52021594      1.63339914
H      -2.26849390     -3.88260234     -0.10564324
H      -3.55056654     -4.49884334      0.93656790
H      -4.60868136      0.14715041     -0.03743965
H      -3.44274686      2.43207790     -2.75157319
H      -2.16798137      3.45908183     -2.09096405
H      -3.80267112      4.08314107     -2.22346018
H      -5.47527202      1.81188760     -1.29509933
H      -5.46772044      2.18538079      0.44405644
H      -5.60234525      3.47936348     -0.74354811
H      -2.16000792      4.01718487      0.45854865
H      -3.79773607      4.63395561      0.34486183
H      -3.41850621      3.34715283      1.49952241
H       0.26164488      2.19322302     -0.52018133
H      -0.09969345      0.84171195      2.10264603
H       5.65238271      1.11585236      1.30899231
H       5.83353852      0.86287376      3.04234527
H       5.53404579     -0.52122415      1.99524151
H       2.34969719      0.08493791      3.94552752
H       3.47139809     -1.17196154      3.41641424
H       4.02766057      0.15205895      4.45141574
H       2.51727690      2.47182962      2.92950405
H       4.19311837      2.57850438      3.43646824
H       3.76800477      2.82725728      1.73576654
H       4.59847926     -0.33915271     -0.05852223
