28
CCC(C)(C)c1ccccc1O
C       1.98128817      1.37966211     -0.90902716
C       1.80738539     -0.13234258     -0.79791444
C       0.84804680     -0.61074189      0.33667643
C       0.75826892     -2.15767266      0.28895682
C       1.52310417     -0.27959570      1.69556547
C      -0.57252919     -0.01674746      0.19107157
C      -1.15489612      0.74635894      1.22428833
C      -2.43834063      1.29255567      1.10814600
C      -3.18152014      1.09071339     -0.04689220
C      -2.64145402      0.34116977     -1.08576953
C      -1.35702626     -0.20332468     -0.96484825
O      -0.86793093     -0.93604156     -2.01127090
H       2.41503224      1.80611560     -0.00055494
H       1.03173684      1.88318129     -1.11160984
H       2.66058766      1.61302089     -1.73582640
H       2.80004837     -0.57572465     -0.64013174
H       1.48045286     -0.50804381     -1.77321130
H       1.73739061     -2.61503765      0.47530266
H       0.06473917     -2.53667281      1.04922934
H       0.41744659     -2.53287431     -0.68042670
H       1.61628621      0.79851772      1.86303256
H       0.95911620     -0.70040506      2.53683844
H       2.53396512     -0.70197789      1.74704028
H      -0.62606142      0.93937573      2.15330555
H      -2.85261439      1.87615201      1.92655408
H      -4.17763202      1.51466520     -0.13690437
H      -3.23299285      0.18910614     -1.98339166
H      -1.53189736     -0.96339174     -2.71822809
