26
OC(=S)CCCCCCC(O)=S
O       4.51619875      0.21286491     -1.21266424
C       3.47502064      0.93602526     -0.77593768
S       3.81234835      2.32736037      0.05051948
C       2.12621423      0.36285204     -1.07367229
C       1.75486256     -0.70866547     -0.04964670
C       0.45137955     -1.44089456     -0.37984688
C      -0.80103684     -0.56359206     -0.48281076
C      -1.12450330      0.19017900      0.81091641
C      -2.39723799      1.03253097      0.70392958
C      -3.64227990      0.20454059      0.63392061
O      -4.10055707     -0.04106162     -0.60215490
S      -4.49230571     -0.44369985      1.89533313
H       5.33677557      0.66769716     -0.95701566
H       2.14899597     -0.06585316     -2.08279033
H       1.38351419      1.16817976     -1.08450742
H       2.55972750     -1.45344093      0.00314614
H       1.69674273     -0.26698935      0.95207568
H       0.28310666     -2.20994587      0.38442109
H       0.57748632     -1.97503513     -1.32997551
H      -0.69576536      0.14624380     -1.31110301
H      -1.64084925     -1.21826776     -0.74388851
H      -0.29805230      0.86736039      1.05426760
H      -1.20924952     -0.52306974      1.63929202
H      -2.35029308      1.68474965     -0.17645832
H      -2.46683696      1.69498584      1.57567016
H      -4.90340576     -0.58505425     -0.53044541
