15
O=P([O-])(O)O.O=P([O-])(O)O.[Ni+2]
O      -0.28562468      1.27584983      1.37136042
P      -0.03127705      0.47539325      0.11495307
O       0.26222879      1.57977802     -1.15048456
O       1.29618876     -0.51584488      0.38478758
O      -1.40047821     -0.39929095     -0.30286637
O      -0.29923618     -1.22461580     -1.25614597
P      -0.22524324     -0.32949504     -0.05910265
O      -0.66542463     -1.11802786      1.36848177
O       1.32971077      0.29033380      0.11873004
O      -1.23594268      1.00307664     -0.36906781
Ni      0.00000000      0.00000000      0.00000000
H       1.53627584     -1.07657796     -0.38345107
H      -1.37731345     -1.33930730     -0.03429908
H       2.03990411     -0.36314262     -0.01410374
H      -0.94376815      1.74187087      0.21120837
