32
O=C1CCOc2nc(OCc3ccccc3)ccc21
O      -2.76544317      4.02178557     -2.69926186
C      -2.82797042      3.30996932     -1.70280504
C      -3.91922670      3.44358127     -0.67815571
C      -4.11740492      2.09654091     -0.01436478
O      -2.91535636      1.65056029      0.61457711
C      -1.87704996      1.53520721     -0.27479035
N      -0.94522870      0.62643244      0.08159508
C       0.10454436      0.47191467     -0.75416457
O       1.09225276     -0.44306236     -0.45845245
C       0.86777475     -1.13197390      0.77078292
C       2.01645941     -2.09044399      0.97585749
C       1.95804009     -3.39224682      0.45830756
C       3.02747006     -4.27206233      0.63352518
C       4.16764419     -3.85710131      1.31933802
C       4.24219596     -2.56099395      1.82636042
C       3.17388681     -1.67960695      1.65223453
C       0.26909984      1.18935371     -1.93096682
C      -0.69646139      2.13084299     -2.27372225
C      -1.78694988      2.30790060     -1.42545336
H      -3.61152874      4.20472671      0.04644763
H      -4.84361556      3.75863225     -1.17149986
H      -4.46220479      1.33465954     -0.72633220
H      -4.88264446      2.17950283      0.76470711
H       0.82851900     -0.42865850      1.61307867
H      -0.07300995     -1.69715398      0.73727242
H       1.07818032     -3.72530168     -0.08766344
H       2.97231727     -5.28008295      0.23109857
H       5.00057891     -4.54201663      1.45367281
H       5.13433545     -2.23454807      2.35422286
H       3.24895362     -0.66762276      2.04402900
H       1.13594791      1.02082726     -2.56117324
H      -0.59410571      2.72043861     -3.18115464
