36
c1ccc2c(c1)ccc1c2ccc2c3ccccc3ccc21
C      -5.76482418      0.07633787     -0.02595328
C      -5.20752749     -1.14632121     -0.36194363
C      -3.81651427     -1.28894009     -0.40825850
C      -2.92662838     -0.21828129     -0.12142926
C      -3.53036486      1.01432118      0.21752831
C      -4.92934244      1.15057739      0.26214547
C      -2.72899187      2.11093740      0.51190784
C      -1.33832705      2.00844734      0.47652872
C      -0.66458742      0.81086011      0.14673248
C      -1.48234766     -0.31235386     -0.15480046
C      -0.81840190     -1.50454299     -0.48306690
C       0.57410993     -1.60452235     -0.51776768
C       1.41690548     -0.52051242     -0.22705058
C       2.85968266     -0.63372245     -0.26562348
C       3.57227701     -1.81943497     -0.59238519
C       4.96997044     -1.87703607     -0.61556717
C       5.71207498     -0.74767154     -0.31195600
C       5.05383474      0.43381256      0.01336783
C       3.64926025      0.49884408      0.03861357
C       3.02824200      1.69758383      0.36843950
C       1.63716374      1.79481523      0.40238177
C       0.78384060      0.70686681      0.11063848
H      -6.84379132      0.19636905      0.01253178
H      -5.84780010     -1.99452664     -0.58953347
H      -3.43932744     -2.27098532     -0.67775507
H      -5.38146602      2.10503618      0.52453144
H      -3.17334319      3.06864172      0.77512915
H      -0.79115195      2.91401575      0.72023210
H      -1.37026293     -2.40780755     -0.72612815
H       0.97862764     -2.57645306     -0.78466230
H       3.04586406     -2.73660468     -0.83936765
H       5.47051332     -2.80714873     -0.87158532
H       6.79769355     -0.78305374     -0.32741207
H       5.65003776      1.31300328      0.24962916
H       3.61726456      2.58109465      0.60590982
H       1.23763776      2.76835453      0.66967705
