47
CCC(C)CCCC(C)CCCC(C)C
C      -4.85368946     -0.76195722      1.52170855
C      -4.78990099     -1.41600654      0.14833766
C      -4.29814521     -0.50446786     -0.99368089
C      -5.29672787      0.62393141     -1.27351203
C      -2.89123646      0.08925263     -0.77614639
C      -1.80471418     -0.97415162     -0.58921674
C      -0.37913800     -0.40547092     -0.62719886
C      -0.04679542      0.63620420      0.46057210
C      -0.18352265      0.05966466      1.87177980
C       1.34660067      1.26703546      0.23839508
C       2.53390335      0.30385789      0.35751094
C       3.86077128      1.03862801      0.13101452
C       5.09982155      0.15295974      0.35971408
C       6.36963428      1.00175651      0.25789302
C       5.17749606     -1.01127091     -0.62896168
H      -5.52875719      0.09837992      1.52739091
H      -5.22868829     -1.48081374      2.25777325
H      -3.86677521     -0.43232217      1.85783024
H      -5.79018989     -1.79072027     -0.10352179
H      -4.14807952     -2.30255255      0.21110549
H      -4.25976720     -1.12537782     -1.89926337
H      -5.01070596      1.17504194     -2.17603417
H      -5.34122199      1.34108788     -0.44778489
H      -6.30328513      0.22417480     -1.43508581
H      -2.90589539      0.76651957      0.08499584
H      -2.63394843      0.70381890     -1.64868423
H      -1.89081318     -1.71674923     -1.39247325
H      -1.95826368     -1.51585850      0.34978270
H      -0.21014771      0.04233192     -1.61488346
H       0.31294827     -1.25258251     -0.54939500
H      -0.76292898      1.46312686      0.37558973
H       0.16243590      0.77849220      2.62214969
H      -1.22856915     -0.16952958      2.10236041
H       0.39417134     -0.86260950      1.98968103
H       1.47707469      2.08206801      0.96240347
H       1.36534193      1.73582778     -0.75409214
H       2.43043538     -0.49761614     -0.37970780
H       2.54540648     -0.15816924      1.35052291
H       3.88040462      1.44861396     -0.88689975
H       3.90917494      1.89535632      0.81560494
H       5.05376554     -0.26125756      1.37487210
H       6.35280426      1.81714443      0.98881206
H       6.47468227      1.44205647     -0.73959110
H       7.26012758      0.39596251      0.45667951
H       4.34670010     -1.70932569     -0.48924221
H       6.10341855     -1.57937013     -0.48765426
H       5.15478810     -0.65511427     -1.66440402
