30
Cc1cccc(Nc2ccccc2C(=O)O)c1
C       3.73244071      1.15534846      1.29076853
C       3.03787461      0.15732591      0.41234115
C       3.77060665     -0.81973985     -0.26758650
C       3.11515443     -1.76644734     -1.05110059
C       1.72263873     -1.74697486     -1.15083592
C       0.96062965     -0.79110191     -0.46492817
N      -0.43847127     -0.80619769     -0.63416763
C      -1.42879121      0.16476047     -0.35936771
C      -1.16079077      1.53121790     -0.55013463
C      -2.11546614      2.51042211     -0.26356305
C      -3.36645292      2.14289219      0.21787109
C      -3.66718817      0.79426945      0.40267863
C      -2.71176462     -0.19739295      0.11396527
C      -3.05980193     -1.63242110      0.29668805
O      -2.38363859     -2.58302347     -0.05807577
O      -4.23914192     -1.82057753      0.91754203
C       1.63678324      0.15642628      0.31310127
H       3.79955165      0.77106420      2.31317562
H       4.74316130      1.36320747      0.92408994
H       3.19038856      2.10680020      1.30381750
H       4.85491666     -0.84888388     -0.19083827
H       3.68616095     -2.51995807     -1.58667184
H       1.22914659     -2.48563342     -1.77809498
H      -0.80920880     -1.76194463     -0.65125570
H      -0.20163553      1.84519211     -0.95633626
H      -1.87899779      3.55926943     -0.42527613
H      -4.11104923      2.90314822      0.44030443
H      -4.65501561      0.52395665      0.76869710
H      -4.32545729     -2.79531014      0.97373618
H       1.07341803      0.89030577      0.88286392
