28
CNc1ccc(S(=O)(=O)N(C)C)cc1
C       4.37876979     -0.92366583      0.35979031
N       3.23430160     -1.36597471     -0.41769935
C       2.07817628     -0.57964469     -0.45178675
C       1.12910440     -0.83468683     -1.45533903
C      -0.08145817     -0.13770155     -1.51050258
C      -0.37569290      0.80160432     -0.52326858
S      -1.90491955      1.71089221     -0.59329952
O      -1.70120261      2.95556247      0.11835933
O      -2.34897348      1.70536672     -1.97164926
N      -2.97305753      0.74544848      0.31549524
C      -3.36598375     -0.54673878     -0.27198826
C      -2.73323427      0.67253143      1.76681619
C       0.54280143      1.06576884      0.49278431
C       1.75044815      0.35978557      0.53492317
H       5.21365376     -1.61149218      0.19131094
H       4.16188769     -0.93496365      1.43261622
H       4.70371277      0.07744607      0.05769572
H       3.49666583     -1.68960452     -1.34617879
H       1.33279201     -1.58562292     -2.21572393
H      -0.78194462     -0.33803761     -2.31770443
H      -2.57080417     -1.28899588     -0.16013166
H      -4.26219753     -0.92165441      0.23338598
H      -3.62107502     -0.44094945     -1.32982686
H      -3.63028950      0.29399000      2.26797478
H      -1.90085627      0.00135452      1.99582892
H      -2.53108976      1.66178013      2.18612032
H       0.32951867      1.81028666      1.25641900
H       2.43094672      0.56692286      1.35557855
