36
CC(C)(C)C(=O)C(Oc1ccc(Cl)cc1)n1cncn1
C      -3.44330485      0.51717831      0.04063143
C      -2.56193988     -0.73799628      0.01185272
C      -2.21328295     -1.16598266      1.44252805
C      -3.35915972     -1.88713260     -0.63872927
C      -1.31760169     -0.45837061     -0.86777520
O      -1.38952482     -0.60655297     -2.09540080
C      -0.02976110      0.06699286     -0.21853730
O       1.06471812     -0.15570760     -1.11870163
C       2.31725795     -0.33072240     -0.60302982
C       2.73825246      0.01416024      0.68221826
C       4.06402561     -0.21376556      1.07002871
C       4.96788488     -0.77865139      0.17278800
Cl      6.59442647     -1.05671752      0.65651769
C       4.55982692     -1.11363568     -1.11437621
C       3.23705170     -0.88443535     -1.49969650
N      -0.15959275      1.49279171      0.02229416
C      -0.20992251      2.49534158     -0.89731915
N      -0.34555730      3.64670831     -0.28096499
C      -0.35788181      3.29543312      1.03759643
N      -0.25274679      1.98491967      1.27873407
H      -3.66207584      0.87246027     -0.97288626
H      -2.95956723      1.33967188      0.57528806
H      -4.39824678      0.31943425      0.54057279
H      -1.52284922     -2.01698257      1.44432140
H      -3.11087596     -1.46430377      1.99662184
H      -1.74597008     -0.35480095      2.00960448
H      -4.24303785     -2.14662754     -0.04496789
H      -2.74156804     -2.78767486     -0.73559994
H      -3.70726815     -1.61907851     -1.64304559
H       0.13772263     -0.46256225      0.72273380
H       2.07922363      0.48002247      1.40849045
H       4.38532616      0.06070160      2.07191437
H       5.26076916     -1.54820363     -1.82185855
H       2.92098733     -1.14316921     -2.50848692
H      -0.14630130      2.33300447     -1.96569714
H      -0.44943640      4.01425319      1.84233642
