63
CCCCCCCCCCCCCCCC(=O)N1C(=O)CC[C@H]1C(=O)[O-].[Na+]
C      -9.18244076     -0.65007993      2.44532677
C      -8.70618988      0.35833041      1.41117907
C      -7.59550418     -0.17356010      0.50112663
C      -6.27977761     -0.43108509      1.24052001
C      -5.16920788     -0.97930738      0.33653167
C      -4.65891323      0.03806530     -0.68693797
C      -3.55593306     -0.51371712     -1.59724418
C      -2.28086706     -0.99851438     -0.89839356
C      -1.57448199      0.09470394     -0.09347776
C      -0.29469579     -0.38885685      0.59756390
C       0.81215289     -0.90323960     -0.32856155
C       1.28585267      0.08009903     -1.40314277
C       1.81225398      1.42225800     -0.88459132
C       2.97603749      1.33903007      0.10743403
C       4.21659337      0.65284972     -0.46824551
C       5.40203569      0.71211318      0.48356741
O       5.27737198      1.13156722      1.63694532
N       6.60242373      0.21098078     -0.00590572
C       6.86453207     -0.41179926     -1.23710877
O       6.06378798     -0.77735289     -2.08749558
C       8.35300495     -0.64669654     -1.33640208
C       8.81504612     -0.53481019      0.10940737
C       7.85031791      0.47642533      0.70621083
C       8.46205499      1.87992916      0.45237549
O       8.03151573      2.48915585     -0.56965053
O       9.36393822      2.22216379      1.27040728
Na      0.00000000      0.00000000      0.00000000
H      -9.49076035     -1.58607747      1.96905201
H      -8.40199593     -0.87425521      3.17798972
H     -10.04237555     -0.24917555      2.99160689
H      -9.56077672      0.64077234      0.78463807
H      -8.36983534      1.27049973      1.91748763
H      -7.93206098     -1.09466136      0.01039878
H      -7.43405925      0.56665933     -0.29003892
H      -5.93826938      0.49139695      1.72521898
H      -6.44767397     -1.16426438      2.03744555
H      -4.34164551     -1.28880937      0.98488845
H      -5.52408611     -1.88010458     -0.17836851
H      -4.30734416      0.93961202     -0.17287484
H      -5.48484730      0.35605970     -1.33304453
H      -3.28572831      0.26500358     -2.32165907
H      -3.96598438     -1.34686542     -2.18192383
H      -2.50731012     -1.85202768     -0.24965866
H      -1.60660317     -1.37462789     -1.67639474
H      -2.24705059      0.46454622      0.68899015
H      -1.35395144      0.95019514     -0.74151093
H       0.09850395      0.43024173      1.21131777
H      -0.55485769     -1.19109073      1.29976094
H       0.47346197     -1.82108953     -0.82374174
H       1.66640728     -1.20577837      0.28897327
H       2.06556252     -0.40826611     -2.00006500
H       0.46469461      0.27692958     -2.10279820
H       2.12682382      2.02332542     -1.74720092
H       0.99286164      1.97872195     -0.41464946
H       3.23783944      2.36122207      0.41012134
H       2.65728956      0.82721219      1.02297172
H       3.99532072     -0.40103688     -0.66454432
H       4.49624499      1.14830898     -1.40451755
H       8.79698413      0.12235274     -1.97520353
H       8.56326444     -1.63840091     -1.74498476
H       8.68615764     -1.50446697      0.60723978
H       9.87183997     -0.26011110      0.18242869
H       7.71305125      0.32939737      1.78330901
