25
COc1ccc(C=O)c(C(=O)O)c1OC
C       3.51498788     -0.52819439      0.10306833
O       2.38589927      0.28831720     -0.18036476
C       1.14511295     -0.28152523     -0.07266193
C       0.90819785     -1.56702748      0.42202299
C      -0.39055196     -2.08479483      0.45796395
C      -1.47388659     -1.32513026     -0.00141635
C      -2.82695779     -1.92204022      0.06513994
O      -3.00412536     -3.04275332      0.53211141
C      -1.24963168     -0.03124907     -0.48119503
C      -2.36761604      0.77600834     -0.98215339
O      -3.11290289      0.47168321     -1.89232772
O      -2.55073247      1.87437826     -0.23032407
C       0.05323155      0.49537846     -0.50554242
O       0.24039337      1.74257911     -1.05659005
C       0.68174690      2.69046196     -0.08279890
H       3.54139471     -1.40925080     -0.54667511
H       4.41345084      0.06235027     -0.10044829
H       3.53708707     -0.81333029      1.15983438
H       1.71280193     -2.20102787      0.78221680
H      -0.55121740     -3.09164654      0.84292836
H      -3.68065215     -1.33279423     -0.30207185
H      -3.30423400      2.33904387     -0.65181937
H       1.77432682      2.73854925     -0.06748620
H       0.30911355      3.67410302     -0.38470999
H       0.29476364      2.47791158      0.92077933
