18
Nc1c(Br)cc(Br)c(S(=O)(=O)O)c1Br
N      -2.51786432     -1.26085990     -0.83436349
C      -1.55180792     -0.45329156     -0.19423434
C      -1.92264498      0.78804476      0.34430583
Br     -3.74417528      1.33129915      0.40931585
C      -0.97118529      1.63786603      0.89904385
C       0.38671500      1.30107722      0.86120370
Br      1.51928892      2.50400220      1.80843496
C       0.80402867      0.11873678      0.22781245
S       2.53167710     -0.22122922      0.02740205
O       2.90494634     -1.18470343      1.03760491
O       3.26042006      1.01686865     -0.14418732
O       2.70880955     -0.91833712     -1.41384065
C      -0.17123019     -0.77391950     -0.26651298
Br      0.24637969     -2.53262457     -0.91654779
H      -2.25002519     -2.23972297     -0.91287892
H      -3.46334903     -1.13089395     -0.48102486
H      -1.29154744      2.56669264      1.36867680
H       3.52156432     -0.54900523     -1.82021006
