19
CCCCC[N+](=O)[O-]
C      -3.00013195     -0.12329488      0.14383999
C      -1.67098044      0.47698146     -0.28572666
C      -0.49093339     -0.30568519      0.28972524
C       0.84417340      0.30071113     -0.14427760
C       2.01358969     -0.48512368      0.43341577
N       3.28777342      0.15563663     -0.02589836
O       3.76941619     -0.24931942     -1.09116874
O       3.76004671      1.04670602      0.69084604
H      -3.82996927      0.45176151     -0.27876026
H      -3.09320696     -1.15793151     -0.20141365
H      -3.10076917     -0.11409520      1.23385122
H      -1.62355740      1.52048052      0.04678232
H      -1.61602951      0.48238867     -1.38055694
H      -0.54536870     -1.34962039     -0.04254346
H      -0.55288752     -0.31147191      1.38484883
H       0.90393423      0.31166460     -1.24012097
H       0.89644024      1.34690914      0.18329093
H       2.02802830     -1.52298976      0.08538066
H       2.02043215     -0.47370775      1.52809668
