28
Cc1ccc(O)c(C(C)(C)C)c1
C       3.53614051     -1.03408553     -0.25819846
C       2.35619797     -0.11072787     -0.17090728
C       2.52999115      1.26894290     -0.26424507
C       1.42508390      2.11292030     -0.21275767
C       0.13881289      1.57940945     -0.07819436
O      -0.91706400      2.44803171     -0.03145547
C      -0.08768192      0.19215588      0.00463813
C      -1.50418341     -0.40825463      0.14608583
C      -2.37558714     -0.02593168     -1.07099492
C      -1.51913797     -1.95712306      0.21892632
C      -2.17324059      0.09017097      1.44642007
C       1.05632769     -0.63294230     -0.05098612
H       4.44735932     -0.54157421      0.09729929
H       3.38306085     -1.92111118      0.36545370
H       3.68776575     -1.34989367     -1.29492292
H       3.52423309      1.69417834     -0.37632760
H       1.58332380      3.18482054     -0.28176945
H      -0.58382324      3.35686091     -0.09740639
H      -1.89964269     -0.33720914     -2.00846729
H      -3.35806671     -0.51028482     -1.02018692
H      -2.56223970      1.04949691     -1.13934979
H      -0.95438425     -2.32697810      1.08277507
H      -1.09899532     -2.40886935     -0.68736883
H      -2.54251771     -2.33889670      0.32005022
H      -2.35483520      1.16862100      1.44497219
H      -3.14756382     -0.38973963      1.59752146
H      -1.55155344     -0.13735202      2.32049754
H       0.96222018     -1.71463500     -0.00110128
