31
COP(=O)(Oc1ccccc1)Oc1ccccc1
C       0.33056672      3.64922081      0.30293241
O       0.73026543      2.41525133     -0.25619823
P       0.00442802      1.09279856      0.32711687
O       0.01916648      1.00481695      1.82582829
O       0.71953823     -0.11206715     -0.46609169
C       2.01582477     -0.50408553     -0.29450305
C       2.45432719     -1.53429700     -1.12842701
C       3.76281313     -2.00903673     -1.03230033
C       4.63561349     -1.45377549     -0.09899757
C       4.19819412     -0.42618783      0.73598571
C       2.88789086      0.05007762      0.63972809
O      -1.45965204      1.17665506     -0.34249590
C      -2.42212866      0.21442360     -0.22711412
C      -2.31985230     -0.90316873      0.59869163
C      -3.36297876     -1.83195626      0.64350882
C      -4.50556596     -1.64371183     -0.13328877
C      -4.60916801     -0.52407864     -0.95603394
C      -3.56836563      0.40409958     -1.00109632
H       0.83593078      4.45702720     -0.23220662
H       0.61522001      3.69246422      1.35756295
H      -0.75015720      3.78147789      0.20328497
H       1.77540220     -1.96961157     -1.85725305
H       4.09939837     -2.81070426     -1.68422512
H       5.65536196     -1.82178397     -0.02058672
H       4.87791209      0.00531398      1.46667500
H       2.58054707      0.84747826      1.30924245
H      -1.45013644     -1.07872100      1.22488755
H      -3.28378136     -2.70287249      1.28974137
H      -5.31505360     -2.36815421     -0.09458848
H      -5.49904319     -0.37307498     -1.56133799
H      -3.65251774      1.27618264     -1.64432041
