19
O=C(O)C1CCC(C(=O)O)[Se]1
O      -2.42140432      0.35342205      1.23054468
C      -2.35277872      0.53482809     -0.01040657
O      -3.13276953      1.54123882     -0.54950367
C      -1.46231675     -0.32276519     -0.78548339
C      -0.73081512     -1.33717861      0.05515650
C       0.41309755     -0.63220635      0.73441779
C       1.39172746     -0.23265731     -0.38079030
C       2.38364011      0.69064442      0.14481625
O       2.55658655      1.85231133     -0.28671851
O       3.19035882      0.26631526      1.18673081
Se      0.06484435      0.68500141     -1.51496403
H      -2.86238351      2.50967125     -0.54427497
H      -1.91862186     -0.83112411     -1.63643196
H      -1.41005804     -1.68864362      0.83677603
H      -0.31788740     -2.12681176     -0.57851605
H       0.11746203      0.31604875      1.21936610
H       0.90604598     -1.34713777      1.38973367
H       1.78530849     -1.11815931     -0.88097756
H       3.79996391      0.88720264      1.70013622
