42
CN(C)CCc1c[nH]c2ccc(C[C@H]3COC(=O)N3)cc12
C       4.75031717      0.08330458     -2.24986877
N       3.76913683      0.89539964     -1.52696479
C       4.42906459      2.07639042     -0.96223634
C       3.10584524      0.13038676     -0.45050842
C       2.18779575     -0.99258857     -0.96562000
C       1.41247158     -1.63983057      0.14287642
C       1.74556624     -2.80474479      0.80647003
N       0.78269120     -3.05484805      1.74663524
C      -0.18009021     -2.07350080      1.71470501
C      -1.33539294     -1.91827085      2.48763791
C      -2.14438300     -0.80618700      2.23102437
C      -1.81528731      0.12240331      1.23711268
C      -2.71871494      1.29967951      0.96127513
C      -3.53141382      1.12918848     -0.32110694
C      -4.54504646      0.00127613     -0.27969786
O      -5.59944821      0.44724400     -1.14552244
C      -5.49115041      1.80263125     -1.26952124
O      -6.25504588      2.51039022     -1.90129238
N      -4.37396531      2.24811428     -0.61237018
C      -0.64473842     -0.05775952      0.47861821
C       0.18676125     -1.17203609      0.71727036
H       5.25415224      0.68250071     -3.01719772
H       4.26700227     -0.74113824     -2.78293986
H       5.51512684     -0.33188778     -1.58366501
H       3.69929487      2.72600315     -0.46608074
H       4.88990670      2.67649506     -1.75493513
H       5.20486226      1.80885294     -0.23557028
H       3.84854222     -0.28396648      0.24509542
H       2.48712814      0.82311351      0.13603076
H       2.77629224     -1.76370263     -1.47667900
H       1.48668149     -0.58974434     -1.70745268
H       2.58546633     -3.47644779      0.68748474
H       0.77446569     -3.84506410      2.37636689
H      -1.60062207     -2.63138336      3.26155497
H      -3.04587165     -0.67408894      2.82728128
H      -2.10339742      2.20683400      0.89368511
H      -3.38755541      1.47044513      1.81532079
H      -2.87309821      1.00216214     -1.19039865
H      -4.97352434     -0.16272275      0.71518234
H      -4.13335520     -0.94092291     -0.65349966
H      -4.03662269      3.16141698     -0.88823723
H      -0.36984725      0.65660339     -0.29321566
