17
Nc1nc(=O)[nH]c2nccnc12
N      -2.58533550     -0.68493655      0.23947169
C      -1.51096478      0.17007867      0.23644691
N      -1.70231352      1.42204571      0.53033422
C      -0.65569134      2.31472455      0.52302150
O      -0.80327343      3.50148959      0.79969831
N       0.59653924      1.86924973      0.19965722
C       0.86312649      0.54870458     -0.09974146
N       2.13120058      0.17934914     -0.37845794
C       2.29740190     -1.14316610     -0.63854777
C       1.24718261     -2.05669186     -0.61447000
N      -0.02648998     -1.69681300     -0.33215688
C      -0.17296128     -0.36738432     -0.08954003
H      -2.36739844     -1.67206881      0.34537547
H      -3.38439281     -0.35625348      0.76976807
H       1.35163170      2.53613992      0.20190319
H       3.31093514     -1.45585044     -0.86832518
H       1.41080343     -3.10861732     -0.82443733
