30
O=S(=O)(c1ccccc1)N1CCCCC1
O       0.49021874      0.09171251     -2.81079203
S       0.49419642     -0.65277705     -1.56963887
O       0.46145410     -2.10094244     -1.56212407
C       1.90633694     -0.11124549     -0.64115512
C       2.81376821     -1.04432589     -0.13275051
C       3.91557495     -0.59769374      0.59679614
C       4.10608820      0.76940524      0.81027834
C       3.19887885      1.69687617      0.29383134
C       2.09495407      1.25915936     -0.43663827
N      -0.82209620     -0.11127421     -0.60959122
C      -0.92823294     -0.77250654      0.72277230
C      -1.96619062     -0.04098609      1.57005563
C      -3.32158414     -0.00250415      0.87100897
C      -3.18679610      0.57800484     -0.53321867
C      -2.12110255     -0.15934388     -1.34024394
H       2.67310577     -2.10944493     -0.30125920
H       4.62979524     -1.31396946      0.99598242
H       4.96844443      1.11371696      1.37658141
H       3.35583614      2.76025741      0.45745253
H       1.38904559      1.97935692     -0.84451879
H       0.03034894     -0.73292272      1.24804467
H      -1.21185532     -1.82450060      0.60189994
H      -2.06563020     -0.53452552      2.54315648
H      -1.62734716      0.98519525      1.76017910
H      -3.73270909     -1.01760695      0.81072966
H      -4.02711331      0.59691488      1.45683760
H      -4.15036575      0.52113176     -1.05158717
H      -2.92079809      1.64010217     -0.46045421
H      -2.41983891     -1.20055214     -1.50917861
H      -2.02638622      0.33528833     -2.31245587
