21
CCCC(C)(C)O
C       2.80082072     -0.55881966     -0.20340902
C       1.42753069     -0.51689490      0.45100747
C       0.40084674      0.17468632     -0.45346027
C      -0.99860541      0.33558314      0.17608088
C      -1.63680195     -1.00784510      0.53206808
C      -1.91535667      1.10439004     -0.78113091
O      -0.89211281      1.09203852      1.38382801
H       2.76709045     -1.10567943     -1.15111355
H       3.51810619     -1.06098112      0.45333768
H       3.17224575      0.45159906     -0.40192743
H       1.11390923     -1.54374776      0.66622057
H       1.50654083      0.00989883      1.40840686
H       0.79138434      1.17067026     -0.70219084
H       0.31887877     -0.37980027     -1.39706091
H      -1.08212314     -1.51804370      1.32655816
H      -2.65099609     -0.86352697      0.92292846
H      -1.69516324     -1.66944871     -0.33816216
H      -2.89586309      1.28226316     -0.32469774
H      -2.06225418      0.56229602     -1.72098593
H      -1.50019684      2.09212151     -1.01209740
H      -0.48788029      1.94924074      1.16579996
