29
[S-]c1nc2ccccc2s1.[S-]c1nc2ccccc2s1.[Zn+2]
S       3.70501800      0.15253379      2.45095740
C       2.26857470     -0.01983436      1.54778245
N       1.77253757      0.94906609      0.80840942
C       0.60794213      0.53597779      0.18977790
C      -0.18907156      1.31526562     -0.67503715
C      -1.34958563      0.77253820     -1.23700920
C      -1.72442174     -0.53578605     -0.94754255
C      -0.95166480     -1.32949855     -0.09318908
C       0.21227946     -0.77189796      0.46491864
S       1.35412704     -1.48314254      1.53545808
S       4.41336281     -0.31743349     -0.42318016
C       2.73123023     -0.07662093     -0.27742686
N       1.88752234     -1.06287930     -0.06075958
C       0.59358954     -0.58340365      0.01320381
C      -0.56334880     -1.35959103      0.23558170
C      -1.81924372     -0.74548166      0.28808381
C      -1.93531850      0.63106346      0.12178805
C      -0.80384200      1.42329016     -0.09999606
C       0.45236940      0.79356707     -0.15050224
S       2.00630190      1.48421405     -0.40356207
Zn      0.00000000      0.00000000      0.00000000
H       0.11718805      2.33328194     -0.89035753
H      -1.95653993      1.38063599     -1.90168653
H      -2.62771012     -0.94903374     -1.38876553
H      -1.23867317     -2.35010621      0.13628367
H      -0.45548380     -2.43131434      0.36321244
H      -2.70404028     -1.35179884      0.45979903
H      -2.91519162      1.09950377      0.16413505
H      -0.88790751      2.49688472     -0.23037693
