24
COC(=O)CS(=O)(=O)c1ccc(Cl)cc1
C       3.97763372      0.88262685     -0.85988199
O       3.22911920     -0.33533146     -0.82863258
C       1.92786985     -0.18451646     -0.44317463
O       1.40319484      0.89093630     -0.19792117
C       1.24314913     -1.50519980     -0.46849995
S       0.06429105     -1.63988678      0.82681644
O       0.69586757     -1.25491029      2.07528462
O      -0.54459927     -2.95464591      0.70792104
C      -1.22713015     -0.47284148      0.46344625
C      -1.34863727      0.69591853      1.22084767
C      -2.38406597      1.59091802      0.94314392
C      -3.29584009      1.30466783     -0.07336251
Cl     -4.57115060      2.40860901     -0.41226907
C      -3.18653084      0.12663010     -0.81405421
C      -2.15206950     -0.77159470     -0.54327421
H       5.00508178      0.64102639     -1.14552781
H       3.99327319      1.34905048      0.13013429
H       3.56113585      1.56652958     -1.60583454
H       1.96840621     -2.30862500     -0.30236874
H       0.75202183     -1.65972424     -1.43172672
H      -0.64076050      0.92360966      2.01554068
H      -2.47394297      2.50625328      1.52276690
H      -3.90882881     -0.09950416     -1.59456322
H      -2.08748824     -1.69999574     -1.10649811
