53
Cc1cc([N+](=O)[O-])ccc1N/N=C1\C(=O)C(C(=O)Nc2ccccc2C)=Cc2ccccc21
C      -1.90318349     -2.97715724     -0.66510748
C      -3.18723547     -2.23454332     -0.40361340
C      -4.40675582     -2.92309498     -0.54593013
C      -5.61871968     -2.26953430     -0.29097274
N      -6.88338164     -2.99868080     -0.43704298
O      -7.91552437     -2.45539975     -0.01646686
O      -6.84585117     -4.11623949     -0.97246848
C      -5.63223146     -0.93366674      0.11008382
C      -4.42156086     -0.24928783      0.24311340
C      -3.18955685     -0.86914621     -0.03531479
N      -1.97144620     -0.17910655      0.15785841
N      -1.99623600      1.16814740      0.32848569
C      -0.86453709      1.81701726      0.28376511
C       0.48468497      1.14967864      0.03125696
O       0.53371826      0.02967832     -0.47382337
C       1.71541962      1.88662319      0.40263450
C       3.08290523      1.26102930      0.43236995
O       4.03819080      1.91711819      0.83778704
N       3.12622687     -0.04192263     -0.01605544
C       4.24343486     -0.90646265     -0.10971309
C       5.53458970     -0.51251481      0.26168323
C       6.61546182     -1.39208921      0.15285746
C       6.42141072     -2.68025228     -0.32910899
C       5.14458271     -3.09097315     -0.70315487
C       4.04578870     -2.21832405     -0.59960702
C       2.69265318     -2.72853327     -1.02154573
C       1.62173859      3.19283525      0.70752610
C       0.36060219      3.93426247      0.69018263
C       0.36521726      5.31971620      0.89953202
C      -0.83210040      6.03959828      0.90651102
C      -2.04488824      5.38223460      0.70922305
C      -2.06254613      4.00334432      0.50442237
C      -0.86064120      3.28291820      0.49132320
H      -2.08204601     -4.04461213     -0.83272722
H      -1.23102010     -2.89319931      0.19491150
H      -1.40991280     -2.57692474     -1.55633163
H      -4.40050955     -3.96964394     -0.84571332
H      -6.56199184     -0.41202892      0.32537277
H      -4.44049103      0.78856942      0.56939633
H      -1.16943972     -0.59290158     -0.32927019
H       2.24216263     -0.43677035     -0.32906608
H       5.74247356      0.48187603      0.64281733
H       7.60895150     -1.06328144      0.44650867
H       7.26198779     -3.36366743     -0.41394314
H       5.01029040     -4.10315516     -1.07921790
H       2.30252682     -2.13049783     -1.85165702
H       2.74113272     -3.76842279     -1.36229657
H       1.99328743     -2.69447852     -0.18008441
H       2.51343698      3.76033537      0.97238877
H       1.29878572      5.85595551      1.06100761
H      -0.81812538      7.11512854      1.06878290
H      -2.97691633      5.94265774      0.71812475
H      -3.01481218      3.49778919      0.35555249
