43
CC1=C(C(=O)O)N2C(=O)C(NC(=O)C(N)C3=CCC=CC3)C2SC1
C      -5.42171794     -2.01249685     -0.00349378
C      -4.18465045     -1.29059297     -0.47888116
C      -3.89082483     -0.00952046     -0.15484628
C      -4.84435474      0.83694287      0.61245851
O      -6.03304728      0.98125626      0.39146541
O      -4.23728970      1.42178906      1.66177668
N      -2.72908836      0.55903001     -0.56461331
C      -2.21705827      1.79646802     -0.69448398
O      -2.61513256      2.89565739     -0.38867525
C      -0.97246946      1.20728957     -1.44963968
N       0.32843042      1.56581624     -0.83472464
C       1.42528733      0.72854033     -0.81411819
O       1.38298911     -0.40952420     -1.27173555
C       2.70232620      1.39148049     -0.19741675
N       2.30591164      2.62010463      0.53852686
C       3.50472490      0.41469447      0.64690406
C       3.53019202      0.38562962      1.99869370
C       4.35861776     -0.56956479      2.81507151
C       5.20748694     -1.48836690      1.99256228
C       5.20652699     -1.47805549      0.65217342
C       4.35388194     -0.55205914     -0.16863858
C      -1.58854014     -0.17507856     -1.06244622
S      -2.17469093     -1.20144108     -2.43726094
C      -3.31357375     -2.14988373     -1.37994013
H      -5.92515888     -1.51393909      0.82856837
H      -6.13590394     -2.11932893     -0.82614068
H      -5.15606388     -3.01354978      0.35409172
H      -4.92719548      2.00457591      2.03877780
H      -0.97710086      1.45534314     -2.51759876
H       0.50656620      2.50855564     -0.48583348
H       3.31364478      1.72637988     -1.04442080
H       1.75939399      2.34346346      1.35371744
H       3.15944194      3.04257366      0.90639315
H       2.93125554      1.06980064      2.59059001
H       5.00844373      0.01010597      3.48050616
H       3.69131717     -1.16858007      3.44499227
H       5.84286090     -2.18998435      2.52581185
H       5.84070631     -2.17347905      0.10864272
H       5.01785613      0.02516183     -0.82377923
H       3.71313925     -1.16794363     -0.80734884
H      -1.06422910     -0.71844257     -0.26739671
H      -3.94591098     -2.73469278     -2.05658301
H      -2.73699966     -2.85413471     -0.77018101
