66
CCc1cccc(C)c1Nc1ccc(Nc2c(C)cccc2CC)c2c1C(=O)c1ccccc1C2=O
C      -4.94276933      0.78644167      2.25293560
C      -3.88551691      1.64432813      1.57352227
C      -4.14827990      1.79434635      0.09156547
C      -4.94154682      2.87294605     -0.33573180
C      -5.23259522      3.05572724     -1.68499816
C      -4.74723201      2.15558923     -2.62872804
C      -3.96838061      1.05845973     -2.23325735
C      -3.46913563      0.09953888     -3.28051989
C      -3.65512929      0.87937868     -0.86617065
N      -2.82324707     -0.20332880     -0.48086634
C      -1.41222643     -0.13466307     -0.28734435
C      -0.65275419      0.82743917     -0.96434374
C       0.74017084      0.83919037     -0.88157328
C       1.43003830     -0.10963440     -0.11655589
N       2.85482080     -0.14511576     -0.14533672
C       3.69237580      0.98251332     -0.35251178
C       3.92305784      1.91210825      0.68653881
C       3.29502148      1.75241598      2.04444883
C       4.74085990      3.02628701      0.44420792
C       5.33939498      3.21231509     -0.79919087
C       5.12665725      2.28905824     -1.81907759
C       4.30218701      1.17160985     -1.61337820
C       4.12404663      0.18148476     -2.74292304
C       5.08330942     -0.99395527     -2.62621949
C       0.67751284     -1.09871780      0.55830365
C      -0.72643351     -1.10915587      0.47639321
C      -1.49060671     -2.13481450      1.23271707
O      -2.70746613     -2.04427646      1.36839380
C      -0.78144354     -3.26634851      1.85102165
C      -1.50659149     -4.33946488      2.38550993
C      -0.83548358     -5.40458340      2.98831206
C       0.55666488     -5.39729775      3.06467644
C       1.27859168     -4.32488554      2.53839364
C       0.60521689     -3.25895275      1.92729030
C       1.36597753     -2.11957737      1.38973426
O       2.56157845     -2.02062607      1.65061120
H      -5.93939177      1.22820086      2.14683891
H      -4.72545822      0.69547166      3.32185773
H      -4.97769907     -0.22146268      1.82733061
H      -3.86738254      2.63605727      2.04311574
H      -2.89033816      1.22491775      1.75287926
H      -5.33773806      3.58110721      0.38902961
H      -5.84284640      3.89790545     -2.00028514
H      -4.98657749      2.30947017     -3.67839904
H      -3.63605177     -0.93706460     -2.97000754
H      -2.40253425      0.25811153     -3.46465183
H      -3.99967565      0.23633998     -4.22907258
H      -3.24924924     -0.72470195      0.29757409
H      -1.13700003      1.57797159     -1.58527641
H       1.28508438      1.59426892     -1.44471148
H       3.19910637     -0.69257822      0.65630235
H       2.21506506      1.91848900      1.98578019
H       3.70439844      2.47245009      2.76128137
H       3.49208175      0.75412475      2.44750206
H       4.92052991      3.75729626      1.22938347
H       5.97668915      4.07551549     -0.97201728
H       5.61104588      2.44274736     -2.78075662
H       3.08970379     -0.17843316     -2.77700919
H       4.28701251      0.68607542     -3.70360381
H       4.94115246     -1.68186250     -3.46569154
H       6.12541999     -0.65686164     -2.63672787
H       4.92174197     -1.55431580     -1.69951438
H      -2.59414772     -4.34900240      2.33550570
H      -1.39949782     -6.23789739      3.40178991
H       1.08079665     -6.22487678      3.53783961
H       2.36511573     -4.32324346      2.60786517
