69
CCCCCCCCCCCCCCCCCC[N+](C)(C)C.[Br-]
C       9.50655864     -1.67829869     -2.14506483
C       8.00931667     -1.47937980     -2.31661607
C       7.49413190     -0.32861634     -1.45115302
C       5.98590593     -0.13887277     -1.62540171
C       5.43128018      1.06351748     -0.85600318
C       5.59519323      1.01077923      0.66614647
C       4.99212796     -0.21644867      1.35746060
C       3.50469655     -0.47212279      1.08958862
C       2.59738939      0.67050516      1.55319821
C       1.11221318      0.41794666      1.26842293
C       0.50181067     -0.67660520      2.14732584
C      -0.96948389     -0.96403639      1.82906425
C      -1.89927713      0.22009327      2.10239555
C      -3.36720811     -0.17134592      1.91013292
C      -4.29234199      1.02651780      2.13451166
C      -5.78122388      0.67013779      2.08190541
C      -6.27087239      0.02022986      0.78117549
C      -6.02488233      0.89856606     -0.44712542
N      -6.59283398      0.30842675     -1.75332400
C      -5.97498207     -1.04904326     -2.06963214
C      -6.23719276      1.27192288     -2.89097223
C      -8.11044294      0.17966643     -1.69841238
Br      0.00000000      0.00000000      0.00000000
H       9.85295567     -2.50820613     -2.76916655
H      10.05782687     -0.77941236     -2.43875227
H       9.75476880     -1.90901013     -1.10400217
H       7.79226277     -1.27866568     -3.37231608
H       7.49022985     -2.40705072     -2.04907466
H       8.01509084      0.59740927     -1.72346330
H       7.72857442     -0.53750919     -0.40118537
H       5.76575971      0.01036977     -2.69018650
H       5.45987912     -1.05329703     -1.32825157
H       4.36893882      1.17552231     -1.10292052
H       5.92131161      1.97443887     -1.22251150
H       5.15519301      1.91983704      1.09313553
H       6.66138419      1.06007136      0.91816535
H       5.14272913     -0.10968580      2.43923959
H       5.55629135     -1.10974953      1.06367856
H       3.34234190     -0.66547769      0.02343685
H       3.23146334     -1.39415398      1.61481513
H       2.74353860      0.85322438      2.62451876
H       2.87907254      1.59274885      1.03254073
H       0.97714466      0.16741812      0.20970862
H       0.57974852      1.35974537      1.44270465
H       1.05646365     -1.61166015      2.01407200
H       0.59996539     -0.39849299      3.20339490
H      -1.06332668     -1.27206353      0.78043013
H      -1.28861556     -1.81904279      2.43799826
H      -1.65974840      1.04798831      1.42577208
H      -1.74693056      0.58024993      3.12684628
H      -3.50221019     -0.56495020      0.89628981
H      -3.62764034     -0.97441128      2.60997433
H      -4.06860815      1.80999675      1.40117721
H      -4.08385584      1.46207598      3.11987356
H      -6.36159619      1.58371776      2.26172648
H      -6.01148794     -0.00784017      2.91335918
H      -7.34222548     -0.17327043      0.90116148
H      -5.78811405     -0.95534947      0.66573899
H      -4.95145551      1.03858839     -0.61630453
H      -6.48941427      1.88308775     -0.31640828
H      -4.88633146     -0.95020140     -2.03601129
H      -6.30162784     -1.35263589     -3.06903366
H      -6.32382105     -1.77755629     -1.33309036
H      -6.63905451      0.87057228     -3.82587065
H      -5.14733625      1.35027235     -2.94806286
H      -6.68346960      2.24617978     -2.67032858
H      -8.37658542     -0.59633950     -0.97698127
H      -8.53061598      1.14533301     -1.40401171
H      -8.46874628     -0.10635481     -2.69211059
