61
CC(=O)OCC(=O)[C@@]1(O)CC[C@H]2[C@@H]3CCC4=CC(=O)CC[C@]4(C)[C@@]3(F)[C@@H](O)C[C@@]21C
C       7.85571332      0.02193836      1.95043615
C       6.84826640     -0.19110919      0.86335932
O       6.99628657     -0.94953001     -0.08434556
O       5.75193240      0.58174169      1.07881031
C       4.74851007      0.44899544      0.07128393
C       3.52570305      1.28520467      0.41795362
O       3.48190978      2.00554899      1.42379066
C       2.30378497      1.24506889     -0.52002971
O       1.95159014      2.62349490     -0.73649553
C       2.49668484      0.61614277     -1.92040320
C       1.15629383     -0.05858698     -2.28465032
C       0.19185848      0.38343732     -1.18804679
C      -1.09695681     -0.42385483     -0.96831912
C      -1.91852803     -0.48647557     -2.26688209
C      -3.23157015     -1.23179774     -2.07159177
C      -4.04833631     -0.66672917     -0.93463532
C      -5.34998301     -0.38410104     -1.12271996
C      -6.22660104      0.03167056     -0.00363931
O      -7.40503816      0.29932929     -0.22522724
C      -5.65316831      0.01156455      1.38869371
C      -4.18060687      0.39416978      1.36263544
C      -3.31813032     -0.48689251      0.40946916
C      -3.17199338     -1.89692060      1.02762204
C      -1.93293373      0.24513224      0.16754085
F      -2.25259715      1.50763382     -0.31357920
C      -1.08895869      0.52044502      1.45426509
O      -0.87173440     -0.65204217      2.23196293
C       0.27175786      1.19226678      1.15962462
C       1.08676663      0.46390623      0.06915473
C       1.55748608     -0.92600288      0.57554412
H       7.40742413     -0.20314260      2.92191766
H       8.70328527     -0.65259481      1.79606793
H       8.21727129      1.05318859      1.92236011
H       4.44371613     -0.59938024      0.00216178
H       5.14995347      0.81159167     -0.88088121
H       2.02373547      3.07183260      0.13102621
H       3.28176082     -0.14379722     -1.95674735
H       2.74574313      1.37836354     -2.66791969
H       1.27051248     -1.14847405     -2.30193074
H       0.81684901      0.25308382     -3.27794201
H      -0.12459534      1.40343091     -1.46025838
H      -0.84069557     -1.45033380     -0.68758241
H      -2.12411529      0.52726372     -2.63410196
H      -1.34421325     -0.99421674     -3.05053634
H      -3.79325264     -1.20811174     -3.01357259
H      -3.02282975     -2.28903020     -1.86570561
H      -5.84736935     -0.50517280     -2.07894550
H      -5.80628246     -0.98354931      1.81793236
H      -6.20186539      0.73591357      2.00072267
H      -3.78932862      0.34893284      2.38622518
H      -4.11573257      1.44659153      1.05450732
H      -4.10105453     -2.47381382      0.93917570
H      -2.38818286     -2.48532874      0.54113296
H      -2.94381575     -1.85397488      2.09686571
H      -1.64973271      1.21635008      2.08935777
H      -0.43935379     -0.37891603      3.06146761
H       0.86424717      1.25205879      2.08058373
H       0.06546817      2.22360106      0.84876359
H       0.73540118     -1.61963593      0.75997933
H       2.11136341     -0.82648608      1.51595979
H       2.21828068     -1.42989233     -0.13645328
