46
CCN(CCO)C(=O)c1cc2ccccn2c1-c1cccc(OC)n1
C      -4.88739096     -0.95639044     -0.75126987
C      -3.50059681     -1.57424296     -0.66332523
N      -2.52547760     -0.62153032     -0.13822433
C      -2.25282707     -0.66926641      1.30810306
C      -1.14614342     -1.66631567      1.66981627
O      -1.63531828     -3.00481118      1.60778453
C      -1.85545071      0.19839437     -1.04794611
O      -2.05240854      0.15118194     -2.25995258
C      -0.89476877      1.15071006     -0.50664221
C      -1.18757042      2.40337587      0.09967578
C       0.00792732      2.97596110      0.46314191
C       0.35162112      4.20126715      1.10483727
C       1.64625964      4.50223706      1.31680160
C       2.70987971      3.60530801      0.90392899
C       2.38888696      2.44956172      0.29972450
N       1.04349888      2.12382738      0.07996640
C       0.49180182      1.00280374     -0.52985089
C       1.28691711     -0.09923158     -1.06189106
C       1.16749513     -0.52748117     -2.37815674
C       1.93906837     -1.60666154     -2.79709723
C       2.79720018     -2.21857160     -1.89085397
C       2.84854351     -1.72351826     -0.59775641
O       3.71222721     -2.36580361      0.26763644
C       3.73584896     -1.78233212      1.56629155
N       2.11202580     -0.68022688     -0.16132609
H      -5.60351159     -1.68326477     -1.14651890
H      -4.88896377     -0.08133817     -1.40938220
H      -5.23628428     -0.63259498      0.23473187
H      -3.52698538     -2.46329254     -0.02617657
H      -3.18954879     -1.90486824     -1.66068613
H      -3.18742127     -0.92887901      1.81861155
H      -1.96080931      0.32355989      1.65694992
H      -0.29170747     -1.58067643      0.99577075
H      -0.80818376     -1.48861121      2.69537004
H      -0.85886124     -3.58659026      1.68215526
H      -2.17114304      2.82921155      0.25186071
H      -0.43485407      4.88240436      1.41408378
H       1.92705519      5.43195753      1.80190947
H       3.74020868      3.88730621      1.08890034
H       3.13858089      1.74265720     -0.03171445
H       0.48623565     -0.03835751     -3.06817829
H       1.86643819     -1.96787336     -3.81888259
H       3.41112484     -3.06270307     -2.18341638
H       4.08063999     -0.74299491      1.52906348
H       4.45025473     -2.34779161      2.17242394
H       2.75648666     -1.85550531      2.05210886
