28
O=C(O)CCC[Se][Se]CCCC(=O)O
O      -5.93941135      2.15044446      0.53382800
C      -5.33800334      1.03886903      0.56262653
O      -6.01145933     -0.05961003      1.06643022
C      -3.95178272      0.98918586      0.05415087
C      -3.44440177     -0.45146807      0.18962125
C      -2.02489782     -0.56260234     -0.31741355
Se     -0.95101430      0.65436295      0.78729343
Se      1.13634989     -0.43153823      1.20170807
C       2.13956200     -0.56716103     -0.47022022
C       3.48581870     -1.15064740     -0.22954690
C       4.37335666     -0.40918488      0.70076109
C       4.67053336      0.94906612      0.21106092
O       4.21562071      1.32217639     -0.88914004
O       5.46120857      1.75489117      1.02655694
H      -6.14693955     -0.90975871      0.51809653
H      -3.28321427      1.69248774      0.59696436
H      -3.89918302      1.22737661     -1.03046346
H      -3.46275615     -0.69269392      1.26081380
H      -4.10220646     -1.09857063     -0.40344456
H      -1.92223240     -0.24540288     -1.36323270
H      -1.69220183     -1.59980575     -0.11844213
H       2.13070103      0.40658546     -0.99249719
H       1.56386180     -1.24727688     -1.17242854
H       3.99010115     -1.23539523     -1.22914714
H       3.32786853     -2.17690395      0.19774022
H       3.95628425     -0.30464998      1.72649176
H       5.32392001     -0.99983143      0.85974055
H       6.39451764      1.95705555      0.69967772
