20
Oc1cccc2c(O)cccc12
O       2.49697965     -1.43671836      1.19975440
C       1.78735529     -0.47631834      0.52562169
C       2.56592711      0.55742143      0.00563212
C       1.96450789      1.59061678     -0.69793776
C       0.58297856      1.58587076     -0.87918994
C      -0.22679737      0.55171939     -0.36313974
C      -1.62591009      0.54952588     -0.54830330
O      -2.21036978      1.57710379     -1.24620112
C      -2.43109976     -0.46811827     -0.04162163
C      -1.84667740     -1.51024332      0.66505629
C      -0.46340928     -1.53256752      0.86289343
C       0.37905145     -0.51004186      0.35824682
H       1.89322524     -2.11583363      1.52956150
H       3.64248860      0.55201215      0.15240549
H       2.56545675      2.39857256     -1.10535050
H       0.12764570      2.40479242     -1.43399176
H      -3.16860807      1.42740817     -1.28365510
H      -3.50653466     -0.46357812     -0.18769954
H      -2.46464213     -2.31022476      1.06538070
H      -0.06156770     -2.37139915      1.42253797
