33
NC(=O)N=C(N)N.NC(=O)N=C(N)N.O=S(=O)(O)O
N       2.51172573     -0.21640742      0.38942187
C       1.29296738     -0.34357086     -0.18224526
O       1.16318168     -0.80096102     -1.31220558
N       0.30815526      0.05939250      0.66547239
C      -0.89173336      0.18070344      0.21717107
N      -1.89589461      0.56233516      1.04140881
N      -1.37754206      0.00114295     -1.03382691
N       2.50254142      0.43586103      0.06530351
C       1.22175006      0.34831630      0.48986832
O       0.92831345      0.51026800      1.66907435
N       0.37584109      0.10456825     -0.54738008
C      -0.85073327     -0.19266211     -0.29719536
N      -1.72026855     -0.42258027     -1.30931993
N      -1.48544181     -0.35021706      0.88837184
O      -0.29239702      0.91308715     -1.40748583
S      -0.09145423      0.44188920     -0.06093976
O      -0.16278687      1.28628723      1.10417626
O      -1.09979396     -0.78883296      0.14403125
O       1.32630423     -0.30563835      0.00690399
H       3.30408370     -0.62333576     -0.08057471
H       2.54578857      0.00134874      1.37210106
H      -2.50394261      1.24824128      0.60954896
H      -1.53024145      0.90363518      1.92418460
H      -2.24029886     -0.52975888     -1.04231992
H      -0.68624938     -0.44276531     -1.64439100
H       3.19921819      0.76337199      0.71468527
H       2.66382239      0.46467728     -0.92837364
H      -1.23082718     -0.51787329     -2.19297576
H      -2.30928025     -1.22746200     -1.13065027
H      -2.38735521      0.11062710      0.90966375
H      -0.90758035     -0.02689520      1.66892801
H      -1.25734089     -1.18333414     -0.73875565
H       1.57746874     -0.36345813      0.95206974
