25
NS(=O)(=O)c1cc2c(s1)CC(O)CS2(=O)=O
N       3.98415375      0.88017947     -2.28480615
S       3.79489173      0.40009326     -0.68611020
O       4.42409153     -0.89551835     -0.58503473
O       4.18571564      1.52352230      0.13127317
C       2.07063185      0.12447951     -0.38690320
C       1.37308815     -0.97502723      0.07694319
C      -0.02298346     -0.71804445      0.14991415
C      -0.35783492      0.55872621     -0.24316836
S       1.02444847      1.43980036     -0.72575026
C      -1.72350155      1.16649024     -0.29844544
C      -2.73086936      0.39793053      0.57484939
O      -4.04257396      0.91907984      0.34283802
C      -2.74833167     -1.09107610      0.25175475
S      -1.20592089     -1.85337841      0.69857094
O      -0.97477245     -3.02647544     -0.11522930
O      -1.04629470     -1.84128870      2.13633579
H       4.39696293      1.81407415     -2.30359159
H       4.56246596      0.19254939     -2.77055919
H       1.84928871     -1.91183970      0.34669743
H      -1.69885609      2.21371807      0.02833446
H      -2.07396329      1.18222154     -1.33880258
H      -2.49863302      0.54558597      1.63684725
H      -4.07501435      1.82585518      0.69869937
H      -2.92348854     -1.26479535     -0.81557545
H      -3.54270046     -1.60686227      0.80102600
