59
CC(C)(Cc1ccccn1)N1C(=O)c2ccccc2C1C(=O)NCc1ccc(OC(F)(F)F)cc1
C      -2.29332749      3.15578827     -0.58266902
C      -2.70574088      1.84531375     -1.29319357
C      -3.41044345      2.25852279     -2.60867300
C      -3.76304394      1.09911937     -0.41702183
C      -3.25468463      0.51653315      0.87933377
C      -3.01406513     -0.85086369      0.99830771
C      -2.58347024     -1.35851361      2.22062204
C      -2.41248152     -0.49479975      3.29459254
C      -2.67310061      0.84985674      3.09573547
N      -3.07961452      1.37113652      1.91700097
N      -1.52880215      0.99046827     -1.64085947
C      -1.66793695     -0.25977038     -2.24968128
O      -2.65665980     -0.96517293     -2.31709128
C      -0.39417516     -0.59829265     -2.88421253
C      -0.04890003     -1.74309519     -3.57792183
C       1.23504167     -1.80300004     -4.12041758
C       2.12607832     -0.72642245     -3.96660713
C       1.74813824      0.42328143     -3.26602748
C       0.47431032      0.47225001     -2.72137498
C      -0.18429542      1.55417093     -1.91023870
C       0.66505200      1.84811583     -0.65180125
O       1.67093177      2.55863830     -0.70102737
N       0.29330892      1.15432127      0.47697641
C       1.09969471      1.11837750      1.66931633
C       1.97392848     -0.11027168      1.67561289
C       3.22568064     -0.08944814      1.04101450
C       4.02568150     -1.23323270      1.00803748
C       3.58056112     -2.40365044      1.61926535
O       4.30452822     -3.56061822      1.56516563
C       5.47058617     -3.49265775      2.37572643
F       6.37759414     -2.63887646      1.86161414
F       6.03536838     -4.72151264      2.41962642
F       5.17109237     -3.12517972      3.63871164
C       2.32441544     -2.45004533      2.22326814
C       1.52582094     -1.30576130      2.25565731
H      -3.17468187      3.74353024     -0.30093761
H      -1.71896159      2.97305541      0.32813813
H      -1.68254772      3.79231020     -1.23147092
H      -3.80120598      1.38953870     -3.15012145
H      -2.71871210      2.77605475     -3.28340240
H      -4.25377346      2.93147834     -2.41246413
H      -4.25583822      0.30718189     -0.99269525
H      -4.57495805      1.79488308     -0.16431594
H      -3.17392852     -1.51975768      0.15684395
H      -2.39932282     -2.42367708      2.33337235
H      -2.09312577     -0.86137397      4.26364078
H      -2.56095072      1.56780021      3.90378761
H      -0.75329842     -2.55951657     -3.69541152
H       1.55003682     -2.68792832     -4.66784892
H       3.12407589     -0.79118243     -4.39550993
H       2.44496722      1.24796167     -3.14380803
H      -0.29487647      2.46006577     -2.51505829
H      -0.51904212      0.55079679      0.42276244
H       1.71339248      2.02314535      1.74669982
H       0.42378116      1.11075890      2.53056120
H       3.57274740      0.82022846      0.55168468
H       4.97850306     -1.20082325      0.48549453
H       1.96309803     -3.37438696      2.66637330
H       0.54755034     -1.35485253      2.72725585
