50
CC(C)(C)NC[C@@H](O)COc1ccccc1C1CCCC1
C      -5.61822781     -0.35618955     -0.80075156
C      -4.92765283      0.63560046      0.15483690
C      -5.60342698      0.53335550      1.53259398
C      -5.09985853      2.05448555     -0.41052800
N      -3.51283511      0.22834836      0.20747253
C      -2.61218894      1.10687327      0.96579003
C      -1.20973818      0.48165677      1.09382464
O      -1.31450658     -0.76751940      1.80173393
C      -0.53826011      0.25007025     -0.26622976
O       0.79936890     -0.19609410     -0.00169011
C       1.63242674     -0.38345783     -1.07608520
C       1.21804771     -0.31507548     -2.41147374
C       2.13102721     -0.51689904     -3.44624768
C       3.46178213     -0.78849165     -3.15416470
C       3.88378227     -0.86442415     -1.82611312
C       2.98233866     -0.67060568     -0.76510109
C       3.41895742     -0.74121572      0.69538207
C       4.76361536     -1.41938191      1.00079411
C       5.82024689     -0.31219972      0.99429143
C       5.05959369      1.00956702      0.95580427
C       3.61932330      0.65423283      1.29965285
H      -5.54021625     -1.38737672     -0.43564937
H      -6.68482278     -0.12587768     -0.90659210
H      -5.17356658     -0.32196604     -1.80265921
H      -5.21113914      1.27237511      2.23885786
H      -5.46420991     -0.46077855      1.97296151
H      -6.68284853      0.70755273      1.45184473
H      -4.70474372      2.81687050      0.26959518
H      -6.15938296      2.28579297     -0.57140133
H      -4.58997613      2.16369386     -1.37476424
H      -3.44177587     -0.70430579      0.62861371
H      -3.00120934      1.25979883      1.97764415
H      -2.52037919      2.08126542      0.47514010
H      -0.57888397      1.13367724      1.70953930
H      -0.44016540     -1.19253882      1.70979736
H      -1.06846965     -0.53406183     -0.81871255
H      -0.51818409      1.18733016     -0.83420319
H       0.18743636     -0.11150783     -2.68271541
H       1.80108061     -0.46208640     -4.48035048
H       4.17531174     -0.94292167     -3.95955234
H       4.93347517     -1.07313427     -1.64190543
H       2.64135111     -1.28837253      1.24389873
H       4.72324224     -1.84492511      2.01248702
H       5.01383927     -2.24530884      0.32811894
H       6.48759709     -0.39839369      0.13039323
H       6.44444280     -0.37960285      1.89225708
H       5.11304439      1.44103956     -0.05058497
H       5.47739516      1.74452472      1.65058225
H       3.51149778      0.60029099      2.39044625
H       2.91644457      1.40877185      0.93312144
