49
COc1ccc(C2(c3cccc(-c4cncnc4)c3)N=C(C)C(N)=N2)cc1C
C      -4.78504410     -2.93268233      1.73792844
O      -4.66486056     -2.18949902      0.53239747
C      -3.56740030     -1.37852919      0.40135167
C      -2.58639222     -1.19767328      1.37829965
C      -1.50162780     -0.34462765      1.14644740
C      -1.37162585      0.35496100     -0.06357133
C      -0.15859570      1.27229130     -0.32392593
C       1.00582371      0.43708587     -0.89553965
C       1.11532338      0.20095936     -2.27515129
C       2.15305603     -0.57614600     -2.78689954
C       3.09720002     -1.13789916     -1.92661002
C       3.02136633     -0.93738472     -0.53948082
C       4.01005566     -1.52915113      0.36842954
C       4.40005277     -2.85738361      0.30709237
N       5.31030416     -3.43149903      1.12553905
C       5.84546693     -2.62370405      2.05167206
N       5.55840901     -1.32594616      2.22484361
C       4.64364277     -0.81276728      1.37155632
C       1.96489544     -0.14988145     -0.04534856
N      -0.53033394      2.35818230     -1.29514654
C      -0.33704777      3.44614881     -0.63328530
C      -0.55218312      4.82358681     -1.14308149
C       0.13887822      3.19372253      0.74950645
N       0.40275081      4.16074842      1.67089006
N       0.26177296      1.93117098      0.96286384
C      -2.36003407      0.15688173     -1.04321556
C      -3.45569429     -0.69565232     -0.82129075
C      -4.48924210     -0.87394879     -1.89909009
H      -4.89204042     -2.26848826      2.60182831
H      -3.94116310     -3.61861903      1.86616470
H      -5.69537798     -3.53600666      1.66875904
H      -2.62942833     -1.70682576      2.33487546
H      -0.74882562     -0.23008740      1.92394652
H       0.38402272      0.62487912     -2.96077292
H       2.22546390     -0.74358573     -3.85847333
H       3.90381446     -1.72845329     -2.35688046
H       3.96831310     -3.53544834     -0.42521138
H       6.57746573     -3.06007218      2.72211887
H       4.43545107      0.24397558      1.52253273
H       1.87010712      0.00286295      1.02946932
H       0.37650353      5.39478042     -1.06495362
H      -0.86351999      4.79263468     -2.19066770
H      -1.33172295      5.31505580     -0.55521227
H       0.48439711      3.78826068      2.61238150
H      -0.15592525      5.00476249      1.62891621
H      -2.27362563      0.67379269     -1.99766000
H      -5.47639502     -0.57533832     -1.53159383
H      -4.52171353     -1.91912662     -2.22329388
H      -4.26471727     -0.26031676     -2.77791799
