32
NC(=O)c1ccc(NC(=O)c2ccc([N+](=O)[O-])cc2)cc1
N       6.40992668     -0.45898542      0.49552810
C       5.67574273      0.03631830     -0.54617080
O       6.22767918      0.49827069     -1.53694146
C       4.19440137      0.03055883     -0.41110476
C       3.52539464     -0.81844546      0.47553256
C       2.12698246     -0.78620181      0.56506299
C       1.38175098      0.08706234     -0.23003306
N      -0.02615462      0.17251400     -0.20111890
C      -0.88522845     -0.48296311      0.66202345
O      -0.57603050     -1.19783304      1.60709027
C      -2.33522903     -0.23848293      0.41424384
C      -2.85014080     -0.10338582     -0.88353398
C      -4.21916606      0.11402407     -1.07541697
C      -5.07354527      0.18687103      0.03480436
N      -6.51083018      0.41526226     -0.16651971
O      -7.23362239      0.46108281      0.83845017
O      -6.91269271      0.55318188     -1.33053247
C      -4.56863985      0.03632072      1.33292592
C      -3.19999949     -0.18175650      1.51722712
C       2.05516130      0.92183666     -1.13036610
C       3.45068025      0.89320276     -1.22252892
H       7.41173717     -0.32934763      0.42938003
H       6.02069647     -0.58835738      1.41798232
H       4.06519650     -1.53361220      1.08903459
H       1.64938222     -1.47054972      1.26011498
H      -0.43404316      0.84264205     -0.83972305
H      -2.20682833     -0.19797163     -1.75534722
H      -4.60382678      0.21140565     -2.08944394
H      -5.21986345      0.07977778      2.20413795
H      -2.80603796     -0.30892003      2.52517185
H       1.51026295      1.60792546     -1.77370186
H       3.95688413      1.54855537     -1.92927389
