43
CCCNC(=O)c1nnc2c(CC(C)C)cccc2c1N
C       5.02950917     -1.50206218      2.30915823
C       5.33778724     -1.72112458      0.83481278
C       4.25338061     -2.52464228      0.11988241
N       2.98856582     -1.82603655      0.06713710
C       2.70941862     -0.85452917     -0.87634037
O       3.48336691     -0.55126361     -1.78062773
C       1.38964214     -0.16246227     -0.70628372
N       0.74278557     -0.45795295      0.44358144
N      -0.45115220      0.14741994      0.71404855
C      -1.01788569      1.01097825     -0.14844429
C      -2.26564086      1.58676938      0.14425684
C      -2.99260128      1.26589271      1.43776015
C      -4.16096242      0.27455974      1.26434911
C      -3.67974312     -1.12639956      0.87939701
C      -4.97347394      0.20103664      2.55975179
C      -2.88092511      2.46366151     -0.76461499
C      -2.26517093      2.76958761     -1.96766012
C      -1.02601564      2.20957254     -2.26490957
C      -0.37158850      1.33499159     -1.36493209
C       0.89994475      0.76298646     -1.63535820
N       1.54240009      0.98848007     -2.88259208
H       5.85381820     -0.96645383      2.79068591
H       4.12022403     -0.90772378      2.44255526
H       4.89674012     -2.45673269      2.82803837
H       5.47381484     -0.74845742      0.34802423
H       6.28891873     -2.25958509      0.75109995
H       4.07944210     -3.47940114      0.62689019
H       4.57520511     -2.73920283     -0.90519088
H       2.32145012     -1.94212773      0.82535419
H      -3.37444896      2.21329425      1.84324066
H      -2.29391481      0.89710017      2.19886519
H      -4.82985904      0.63331051      0.47169639
H      -4.52411827     -1.82102144      0.81235686
H      -3.18440216     -1.12328972     -0.09640908
H      -2.97610759     -1.52249789      1.61941228
H      -5.82595323     -0.47720662      2.44691561
H      -4.36117316     -0.15963069      3.39334011
H      -5.36674984      1.18706564      2.82888552
H      -3.85010805      2.90193223     -0.53454624
H      -2.74781025      3.43756326     -2.67671107
H      -0.57830575      2.45446038     -3.22508912
H       1.50076045      1.95011710     -3.20201789
H       2.51093618      0.63902404     -2.88201787
