79
CCCCCCCCCCCCCCCCCCCCCC(=O)OCC(O)CO
C       9.19946673     -1.16134722      2.78054501
C      10.16204469     -0.02677856      2.46081119
C       9.67720639      1.33934290      2.95401602
C       8.95194779      2.18438838      1.90048736
C       7.62388502      1.59429724      1.42579616
C       6.87749680      2.57433474      0.51615409
C       5.48159701      2.09016864      0.11571998
C       5.49590132      0.84471129     -0.77393609
C       4.07869293      0.47766972     -1.22215078
C       4.07345033     -0.77842415     -2.09630489
C       2.68962736     -1.11583987     -2.66137178
C       1.67231145     -1.50108914     -1.58452606
C       0.32158794     -1.87925311     -2.19850338
C      -0.69455146     -2.23268844     -1.11052423
C      -2.06017474     -2.65431106     -1.66061940
C      -2.80920346     -1.58811767     -2.46651220
C      -3.04613850     -0.25544093     -1.74825844
C      -3.77872896     -0.33962611     -0.40422274
C      -5.20275455     -0.88970763     -0.52136686
C      -5.92500418     -1.00042160      0.82774506
C      -6.16335248      0.32531487      1.54444010
C      -7.05584632      1.25567517      0.76406597
O      -6.67865324      2.29285261      0.23789147
O      -8.33412766      0.78363908      0.73871163
C      -9.25747923      1.63037590      0.03031666
C     -10.65528805      1.01623350      0.11404269
O     -10.66091580     -0.28513765     -0.49976641
C     -11.14250373      0.85581061      1.55676891
O     -12.46776432      0.32266429      1.55216825
H       9.62359612     -2.11429057      2.44849472
H       9.01924750     -1.23146349      3.85840691
H       8.23543226     -1.03457119      2.28148528
H      11.11317279     -0.25412492      2.95820141
H      10.37075685     -0.00185199      1.38552794
H      10.55963780      1.91281047      3.26631008
H       9.05074360      1.23040806      3.84726691
H       8.76861897      3.17555390      2.33391469
H       9.61247762      2.33898972      1.03854460
H       6.99883942      1.34796538      2.29203644
H       7.81664763      0.66820491      0.87643345
H       7.47248093      2.77108505     -0.38413666
H       6.76673470      3.53390160      1.03699303
H       4.88938428      1.89351707      1.01787230
H       4.97811452      2.90525830     -0.41936311
H       5.93058457     -0.00203408     -0.23107109
H       6.12462392      1.02743363     -1.65356510
H       3.45686340      0.31954925     -0.33384074
H       3.64223187      1.31479873     -1.78028358
H       4.76201565     -0.63154156     -2.93768227
H       4.45402431     -1.63164783     -1.52137839
H       2.31294887     -0.26314941     -3.23950646
H       2.79940336     -1.95123763     -3.36421956
H       2.05977321     -2.34338711     -0.99860488
H       1.52293345     -0.66445739     -0.89311868
H       0.44827240     -2.73273371     -2.87475572
H      -0.04507971     -1.03944975     -2.79832711
H      -0.29911301     -3.06222112     -0.51159142
H      -0.81007660     -1.38835612     -0.42234917
H      -1.92909595     -3.53879795     -2.29713392
H      -2.68827878     -2.97997345     -0.82240567
H      -3.77263407     -2.00647126     -2.78215435
H      -2.26233673     -1.38676039     -3.39575431
H      -3.61323219      0.40124552     -2.42011788
H      -2.08274544      0.24277832     -1.58751941
H      -3.20263425     -0.94576299      0.30395467
H      -3.81197104      0.67340511      0.01313786
H      -5.78630298     -0.26656828     -1.20946537
H      -5.17216855     -1.89399144     -0.95931114
H      -5.34726094     -1.65782714      1.48847230
H      -6.88762201     -1.49871199      0.65933933
H      -6.63379036      0.14834392      2.51923508
H      -5.22136594      0.84136453      1.75595310
H      -9.25758802      2.63266329      0.47335076
H      -8.94384923      1.68304149     -1.01857005
H     -11.36859935      1.62694674     -0.44978159
H      -9.87136600     -0.75236937     -0.16749651
H     -11.16064018      1.81408488      2.08348645
H     -10.51657184      0.15303331      2.11578641
H     -12.47796592     -0.35571647      0.84768316
