12
O=C1CCC(=O)N1Br
O       1.38113042      1.98292298     -0.57133571
C       0.76316086      0.96763232     -0.28472042
C      -0.73185178      0.91310804     -0.17234251
C      -1.04124250     -0.52570878      0.19626416
C       0.29720037     -1.19930834      0.27041429
O       0.44266358     -2.38139946      0.54673039
N       1.26121426     -0.27555998     -0.01701607
Br      3.08567759     -0.67418262     -0.04163036
H      -1.07106367      1.60494834      0.60413489
H      -1.18607925      1.18555502     -1.12946062
H      -1.54289132     -0.58930807      1.16627872
H      -1.65791856     -1.00869944     -0.56731677
