24
Cc1nc2c([nH]1)c(=O)n(C)c(=O)n2C
C      -3.88157108     -0.64803356     -0.38387586
C      -2.42532691     -0.41439170     -0.24128118
N      -1.82496432      0.74333486     -0.02310882
C      -0.49776910      0.44493353      0.03006451
C      -0.27466996     -0.88178627     -0.15269105
N      -1.50674202     -1.43814729     -0.32719658
C       1.01289087     -1.47284290     -0.14639032
O       1.18201665     -2.67610008     -0.31459050
N       2.03041423     -0.53999929      0.06880986
C       3.39892542     -1.01653657      0.09828369
C       1.84641915      0.84675719      0.26346829
O       2.81155952      1.59464896      0.44702894
N       0.53469182      1.32628854      0.23863614
C       0.25841244      2.73791847      0.43021639
H      -4.43364802      0.29146204     -0.28355862
H      -4.10874123     -1.07413538     -1.36587746
H      -4.23819008     -1.33742776      0.38752202
H      -1.70237427     -2.41788280     -0.48876086
H       3.47091792     -2.09563296     -0.05844583
H       3.84126491     -0.76814341      1.06863198
H       3.97059096     -0.50509149     -0.68310079
H      -0.25381747      3.12528759     -0.45621761
H      -0.38406100      2.86037044      1.30795948
H       1.17377160      3.31514985      0.58447417
