23
Clc1ccc(Oc2cccc(Cl)c2Cl)cc1Cl
Cl      5.12197137      1.31744591     -0.76350588
C       3.59962657      0.63970162     -0.30841365
C       3.47024460     -0.75198139     -0.34640237
C       2.26061180     -1.35251547      0.00724833
C       1.17427196     -0.56310461      0.38560469
O       0.02599074     -1.23278263      0.74601548
C      -1.17354474     -0.68625720      0.34019709
C      -1.44104946     -0.52731482     -1.02575479
C      -2.66820962     -0.01290500     -1.43837966
C      -3.63281130      0.32731084     -0.48964824
C      -3.37706766      0.14826136      0.87534455
Cl     -4.63129751      0.58726834      1.98211856
C      -2.14582524     -0.36800273      1.29961882
Cl     -1.79454535     -0.60283514      2.98024927
C       1.30391595      0.82668983      0.44903011
C       2.51521927      1.42921946      0.09396179
Cl      2.60719536      3.15314293      0.17681666
H       4.30962234     -1.37499042     -0.64664923
H       2.16553984     -2.43579049     -0.01435240
H      -0.69900219     -0.80914138     -1.76902893
H      -2.87674372      0.11737382     -2.49810847
H      -4.58920188      0.72723350     -0.82038218
H       0.47508887      1.44397369      0.78442045
