12
O=C(O)c1oc(Cl)c(Cl)c1Cl
O      -2.69677752      0.46888709     -0.41667887
C      -1.82050907     -0.23504601      0.06202166
O      -2.15318026     -1.35427478      0.74324387
C      -0.39778012     -0.04011818      0.00655625
O       0.43137172     -0.94993482      0.61122014
C       1.71418786     -0.53757585      0.41394612
Cl      3.06699794     -1.41232116      1.02102208
C       1.72364221      0.63296860     -0.31417776
Cl      3.07911770      1.53445934     -0.81252997
C       0.36637165      0.95274869     -0.57604290
Cl     -0.18215374      2.30935751     -1.44580528
H      -3.13128837     -1.36915044      0.70722466
