29
CC(=O)N[C@@H](Cc1cc(Br)c(O)c(Br)c1)C(=O)O
C      -4.42679429     -0.32504713      0.77151976
C      -2.93316531     -0.16292307      0.69828816
O      -2.21142476     -0.27650062      1.68331609
N      -2.45247226      0.12262202     -0.55460993
C      -1.03559256      0.43763107     -0.77774207
C      -0.16527020     -0.82975520     -0.73642869
C       1.23497878     -0.56350287     -0.22948635
C       2.30810823     -0.41840612     -1.11825751
C       3.59283217     -0.16131966     -0.63297008
Br      5.01492868      0.02799193     -1.87408093
C       3.82317828     -0.04477093      0.74093545
O       5.08074888      0.20779962      1.22393182
C       2.75717151     -0.18576038      1.63119975
Br      3.00378541     -0.03474130      3.50589649
C       1.46969805     -0.44244228      1.14937476
C      -0.87815486      1.13751089     -2.13344484
O       0.16300666      1.49040652     -2.66278469
O      -2.05776435      1.37124794     -2.76092551
H      -4.85126603      0.51832397      1.32231624
H      -4.65952279     -1.25991146      1.28871335
H      -4.87841998     -0.36188355     -0.22372526
H      -3.09517820      0.41416765     -1.28575232
H      -0.74990233      1.16133606     -0.00462706
H      -0.61019145     -1.59309843     -0.08465349
H      -0.11602802     -1.29829294     -1.72847140
H       2.14002106     -0.49671801     -2.19076885
H       5.68255644      0.28022851      0.46163832
H       0.63998900     -0.54875089      1.84884408
H      -1.78985576      1.83455867     -3.58470992
