39
CC1=CCCC(C)(C)C1C(C)CCC=O
C      -1.20333950     -2.30455379     -1.21720066
C      -1.39037802     -1.07867674     -0.36578911
C      -2.47589602     -0.96254624      0.42248989
C      -2.80726585      0.23934519      1.25447315
C      -1.73923842      1.33357156      1.25020458
C      -0.97172908      1.43859156     -0.08466286
C      -1.94830760      1.89271418     -1.20580223
C       0.08220909      2.55922348      0.03799002
C      -0.34548596      0.03617475     -0.47754985
C       1.01616342     -0.32567999      0.23665366
C       0.85832460     -1.10449229      1.55031189
C       1.96762660     -1.07232757     -0.74058858
C       3.39234028     -1.28106118     -0.22491685
C       4.11229281      0.02862139     -0.03933805
O       4.66317150      0.35214623      1.00802271
H      -0.43636609     -2.95846410     -0.79494113
H      -2.12545373     -2.89125005     -1.29460774
H      -0.91391943     -2.02650914     -2.23560174
H      -3.20415774     -1.77056628      0.46096519
H      -3.75000978      0.65689761      0.87979053
H      -2.99596503     -0.07468960      2.28757836
H      -2.21613428      2.29207178      1.49465871
H      -1.03411682      1.14861778      2.06831277
H      -2.73736716      1.16225745     -1.40682373
H      -1.41011074      2.05609456     -2.14684902
H      -2.44006106      2.83585886     -0.94017869
H      -0.39586189      3.54394628      0.10465238
H       0.69300711      2.45510978      0.94048023
H       0.74689660      2.57324710     -0.83278764
H      -0.11275928      0.13802612     -1.54810407
H       1.53203840      0.60242491      0.49011126
H       1.80264737     -1.12783450      2.10383691
H       0.12528538     -0.64518125      2.21548574
H       0.55718359     -2.14197396      1.37410521
H       1.55703451     -2.05514027     -0.98882746
H       2.02294975     -0.50795002     -1.68052544
H       3.96322309     -1.85649076     -0.96237426
H       3.40970143     -1.84537804      0.71153224
H       4.15182791      0.68582521     -0.92491424
