44
CC(C)OC(=O)[C@H](C)N(C(=O)c1ccccc1)c1ccc(F)c(Cl)c1
C       4.70647665      0.88209032     -1.73460456
C       3.99135137     -0.44154412     -1.48986931
C       4.99608794     -1.56215309     -1.25198974
O       3.18377765     -0.33849173     -0.30290383
C       1.92821235      0.16776617     -0.47013524
O       1.49593277      0.61028997     -1.53006009
C       1.16259399      0.21847751      0.86761350
C       1.66905808     -0.75960399      1.93138286
N      -0.29654959      0.06809707      0.62781165
C      -0.73429361     -1.17551750      0.13745301
O       0.03768215     -2.05481591     -0.24431060
C      -2.18576756     -1.50372142      0.15316309
C      -3.00059918     -1.16495696      1.24065501
C      -4.35451602     -1.50451683      1.22687045
C      -4.89059311     -2.19552863      0.13948764
C      -4.07480552     -2.55841867     -0.93256768
C      -2.72106351     -2.22060715     -0.92387814
C      -1.06527467      1.27133685      0.53240811
C      -1.91449396      1.50648422     -0.56007018
C      -2.65972856      2.68561315     -0.64461276
C      -2.55708000      3.63847407      0.36111433
F      -3.28182683      4.76231892      0.26310954
C      -1.71355014      3.42620428      1.44727106
Cl     -1.58561952      4.59901064      2.70181659
C      -0.96536458      2.24912818      1.53313010
H       5.36685683      0.82039330     -2.60500465
H       5.30138138      1.17279139     -0.86166128
H       3.98672138      1.68918177     -1.90527322
H       3.37279092     -0.70879263     -2.35531815
H       5.65091906     -1.70036764     -2.11768053
H       5.61498053     -1.35617114     -0.37157318
H       4.47417686     -2.50497110     -1.05510553
H       1.36716144      1.22332605      1.25584809
H       2.68646506     -0.49791695      2.24274374
H       1.03045179     -0.73065628      2.82077275
H       1.70157005     -1.79193859      1.57059323
H      -2.58979617     -0.64898776      2.10388383
H      -4.99077435     -1.23808997      2.06737185
H      -5.94481621     -2.46264697      0.13276542
H      -4.49125921     -3.11035735     -1.77161446
H      -2.08336561     -2.51503459     -1.75491462
H      -1.97694824      0.79857487     -1.38384179
H      -3.30961243      2.86820781     -1.49513588
H      -0.33694969      2.08804043      2.40485955
