35
Cc1cccc(C)c1N(C(=O)CCl)C1CCOC1=O
C      -0.46389276      0.10312089      2.55067752
C      -1.36043309     -0.00225602      1.34715735
C      -2.71866532     -0.27740223      1.57149255
C      -3.60006149     -0.44484187      0.50672066
C      -3.13654414     -0.34921707     -0.80217760
C      -1.78695741     -0.07364245     -1.06552156
C      -1.33283254     -0.01371719     -2.49934447
C      -0.89701019      0.09415796      0.01826575
N       0.47379356      0.34379584     -0.24401112
C       1.01506456      1.62841887     -0.28563789
O       2.23316119      1.80708190     -0.39097128
C       0.07530524      2.82360346     -0.21701697
Cl      0.15412054      3.53883539      1.40597751
C       1.34480112     -0.83493998     -0.33547947
C       2.38729618     -0.98294055      0.75381149
C       3.45234397     -1.80272979      0.06852082
O       3.40090412     -1.45760864     -1.31574509
C       2.18957089     -0.88633536     -1.59980920
O       1.84425121     -0.54819452     -2.72196711
H      -0.98058298      0.61411611      3.37057602
H      -0.17851556     -0.89878488      2.88644749
H       0.44561194      0.67334607      2.35086365
H      -3.09836775     -0.36873544      2.58778411
H      -4.64900552     -0.65850077      0.69771539
H      -3.83856709     -0.49468559     -1.62117822
H      -0.65084158      0.82568157     -2.66406459
H      -0.84015208     -0.95097241     -2.77369666
H      -2.18085913      0.13455762     -3.17688678
H      -0.96301508      2.58762825     -0.44867084
H       0.41246520      3.57184002     -0.94106738
H       0.72291363     -1.74122181     -0.36067924
H       2.80802778     -0.02314641      1.06808161
H       2.00264315     -1.47269509      1.65310578
H       3.26494302     -2.87775024      0.16297551
H       4.44908641     -1.58586567      0.46375224
