51
COc1ccc2cc(C(C)C(=O)OCCN3CCNCC3)ccc2c1
C       8.11760713      0.12534085      1.74175554
O       7.70504960      0.96012155      0.66733015
C       6.46673088      0.72221964      0.13710536
C       6.10956428      1.57245484     -0.90885027
C       4.87203283      1.44116218     -1.54220028
C       3.96599085      0.45064525     -1.13839209
C       2.71554154      0.30220778     -1.76380355
C       1.80842179     -0.69377573     -1.36431010
C       0.46235450     -0.80413054     -2.06045068
C       0.09028453     -2.23346472     -2.46481601
C      -0.64526914     -0.14413514     -1.25209910
O      -1.09320412      0.97016021     -1.49748966
O      -1.05643337     -0.93390655     -0.22031866
C      -2.05776599     -0.35993713      0.64040592
C      -3.45729005     -0.51386303      0.02333131
N      -4.55499435     -0.12864918      0.92713227
C      -4.56771240      1.32525031      1.19414309
C      -5.78341523      1.76043262      2.04546567
N      -7.07467810      1.36244632      1.45830391
C      -7.05185606     -0.09157016      1.22316642
C      -5.85478464     -0.54130746      0.35672238
C       2.16795638     -1.53542404     -0.30492399
C       3.40789995     -1.39905414      0.32573618
C       4.31954702     -0.41307313     -0.07979756
C       5.57133037     -0.26687540      0.54840426
H       8.18518719     -0.92078939      1.42537773
H       7.45358917      0.23613030      2.60539840
H       9.11814133      0.44524143      2.04841705
H       6.80087683      2.34596822     -1.23433963
H       4.62333068      2.12088791     -2.35381293
H       2.44521284      0.97789541     -2.57452734
H       0.51682174     -0.24098554     -3.00314242
H       0.86087667     -2.66843380     -3.11073455
H      -0.85754794     -2.24041915     -3.01478696
H      -0.03485594     -2.89689322     -1.60267482
H      -1.80771371      0.68381776      0.86136121
H      -2.00603614     -0.90969153      1.58684232
H      -3.51679954      0.03850068     -0.92310057
H      -3.56919874     -1.57220710     -0.24906548
H      -4.57659390      1.88635532      0.25007923
H      -3.66372283      1.61418017      1.74099179
H      -5.77214974      2.85043341      2.15703689
H      -5.70004882      1.34099930      3.05597444
H      -7.16523634      1.82688235      0.55479506
H      -7.98466999     -0.37934272      0.72555340
H      -7.03509374     -0.61619308      2.18667408
H      -5.97493422     -0.13104443     -0.65520698
H      -5.88634295     -1.63432886      0.27308957
H       1.48634233     -2.30403512      0.05303422
H       3.65424223     -2.07158708      1.14470719
H       5.82341532     -0.94098025      1.36050860
