15
C=CCNC(N)=S
C      -2.78158392      0.07428769      0.27409251
C      -1.58605162     -0.36039704      0.69422663
C      -0.29058537      0.33383851      0.42638221
N       0.48946172     -0.50894389     -0.45166234
C       1.77091541     -0.30744022     -0.82829703
N       2.50443095      0.58142857     -0.13012315
S       2.41481265     -1.10048535     -2.13477251
H      -2.88635916      0.98128125     -0.31384043
H      -3.68701434     -0.47748089      0.50892991
H      -1.53465111     -1.27385082      1.28323662
H       0.24841088      0.49596315      1.36454272
H      -0.42773242      1.30319305     -0.06461167
H      -0.03040336     -1.09065800     -1.09958832
H       2.31057431      0.71700036      0.85123117
H       3.48577540      0.63226363     -0.37974633
