44
CCN(CC)CCNC(=O)c1cc(Cl)c(N)cc1OC.[Cl-].[H+]
C       4.65563513      1.52828494      1.46125160
C       4.33488767      1.60549034     -0.02951080
N       3.44827012      0.59401177     -0.44916619
C       3.86672505     -0.72997724     -0.44688620
C       4.96657344     -1.01698616     -1.47803977
C       2.10194046      0.85274971     -0.13582485
C       1.21071560     -0.28567345     -0.46790640
N      -0.20064810      0.00284658     -0.18438812
C      -1.12214390     -1.02578889     -0.45780968
O      -0.67080828     -2.14462644     -0.93237825
C      -2.55838044     -0.98149973     -0.26763866
C      -3.35375449     -2.09085520     -0.58035644
C      -4.71879803     -2.09617110     -0.41636803
Cl     -5.65487525     -3.51669230     -0.82773362
C      -5.38988966     -0.99647656      0.07121085
N      -6.80860184     -0.99004044      0.23977542
C      -4.63367515      0.10422387      0.38598543
C      -3.23955283      0.10581103      0.21710657
O      -2.53971498      1.25860632      0.55759996
C      -3.18951987      2.40147149      1.05947246
Cl      0.00000000      0.00000000      0.00000000
H       0.00000000      0.00000000      0.00000000
H       5.77039925      1.55403215      1.62453214
H       4.23733151      2.35380178      2.03750210
H       4.29901131      0.58295482      1.90237890
H       3.82653026      2.59808837     -0.16526814
H       5.27362452      1.67738708     -0.62854304
H       3.05303362     -1.42298504     -0.73502261
H       4.23541659     -1.07385862      0.55166859
H       4.52670749     -0.90689019     -2.48349965
H       5.22289348     -2.08763757     -1.34482077
H       5.84508994     -0.37998794     -1.31037185
H       1.94147557      1.08375536      0.94610683
H       1.69121227      1.74897004     -0.68742613
H       1.30119593     -0.70030927     -1.47958395
H       1.42444842     -1.14392185      0.24690803
H      -0.39581156      0.91931328      0.18420180
H      -2.83034019     -2.96415711     -0.96497569
H      -7.25345232     -0.67675699      1.12804080
H      -7.44838892     -1.30007013     -0.52312607
H      -5.14134520      0.97615993      0.77072594
H      -3.55421454      2.21895979      2.09173195
H      -2.45033727      3.22849648      1.07804075
H      -4.07886482      2.68399913      0.44240474
