24
CCC(=O)OCn1cc(F)c(=O)[nH]c1=O
C       4.46209744      0.08710138      0.08749241
C       3.02776139      0.03341789     -0.40820606
C       2.03511731      0.03062453      0.72903265
O       2.31252121      0.08446616      1.91797830
O       0.77113216     -0.03148642      0.22890575
C      -0.22716587     -0.08657057      1.24726128
N      -1.53019108     -0.06377200      0.59448797
C      -1.97631372      1.11074073      0.01537365
C      -3.14524192      1.17572356     -0.62064248
F      -3.59442455      2.30785581     -1.19170286
C      -3.99257268     -0.02776510     -0.71999333
O      -5.07574546     -0.03118764     -1.29276486
N      -3.47359244     -1.14741181     -0.12251222
C      -2.26663200     -1.24008346      0.52857756
O      -1.90722276     -2.31225658      1.00691673
H       4.69156323     -0.77582946      0.72146526
H       4.64073601      0.99239556      0.67720011
H       5.15778881      0.08606466     -0.75721250
H       2.82864842      0.90549803     -1.03986145
H       2.88198749     -0.87782811     -0.99779718
H      -0.10413079     -0.99949933      1.84022307
H      -0.15837884      0.78799910      1.90665155
H      -1.33609263      1.98386580      0.09076542
H      -4.02164873     -1.99206272     -0.17899733
