21
O=C(O)c1ccc(C(=O)O)c(C(=O)O)c1
O       3.88371428     -0.83387940      1.17232035
C       2.96074791     -1.17308478      0.45617580
O       3.07021394     -2.21101332     -0.38942019
C       1.62758566     -0.52603440      0.39754826
C       1.39546436      0.58939175      1.21234855
C       0.15071823      1.22685753      1.19831187
C      -0.87418833      0.76018820      0.36040484
C      -2.21441934      1.38213827      0.43184848
O      -3.28380242      0.81952398      0.30321479
O      -2.13523941      2.70153685      0.68134120
C      -0.63175002     -0.34079038     -0.47051730
C      -1.63043806     -0.85186365     -1.42169661
O      -1.93204084     -2.01814738     -1.57979242
O      -2.09176809      0.13424267     -2.20814801
C       0.61060195     -0.99347018     -0.44273064
H       3.98213166     -2.54277905     -0.24795877
H       2.18039790      0.96076025      1.87036228
H      -0.01776650      2.07717004      1.85687248
H      -3.06967955      2.99939577      0.68477212
H      -2.75778159     -0.30440880     -2.77873688
H       0.77729828     -1.85573399     -1.08652021
