12
O=c1[n-]c(=O)n(Cl)c(=O)n1Cl.[Na+]
O       1.77960478     -2.10242081     -0.12530842
C       0.89397534     -1.24656467     -0.05489958
N      -0.38376136     -1.58152026      0.11303332
C      -1.36182464     -0.68149078      0.19270030
O      -2.53751144     -1.02099091      0.34854271
N      -1.01954823      0.66456304      0.09461357
Cl     -2.29875981      1.85404430      0.19828809
C       0.27318369      1.12581836     -0.08046373
O       0.56436141      2.32579271     -0.16622785
N       1.20674191      0.10688123     -0.14974942
Cl      2.88353837      0.55588780     -0.37052900
Na      0.00000000      0.00000000      0.00000000
