21
CCCCOC(=O)CO
C      -3.61235646      0.07450519     -0.84867000
C      -2.31580160      0.76020960     -0.44867763
C      -1.17512923     -0.24270750     -0.30148738
C       0.12747069      0.44073876      0.09966195
O       1.14094459     -0.56738817      0.21531537
C       2.36205704     -0.09068062      0.57884237
O       2.63909970      1.08514862      0.78559209
C       3.37445399     -1.22290820      0.66916040
O       4.62584728     -0.79864262      1.19816234
H      -4.41564246      0.81118283     -0.94845059
H      -3.91633981     -0.65972352     -0.09577023
H      -3.50352994     -0.44149911     -1.80796839
H      -2.46773648      1.29294420      0.49724781
H      -2.05722054      1.50994715     -1.20544131
H      -1.02430625     -0.78753586     -1.24191934
H      -1.43152972     -1.00278590      0.44720233
H       0.00556367      0.94874607      1.06352324
H       0.42242923      1.16869622     -0.66518661
H       3.54613667     -1.62285676     -0.33389302
H       2.98332864     -2.00677582      1.32323669
H       4.69226099      0.16026436      1.01951991
