54
CCCCCCCCCCCCCCCCCO
C      -8.97771612      1.90810804      0.08331284
C      -8.19142043      0.62098434     -0.10787964
C      -6.68587249      0.86403615     -0.00575163
C      -5.89855351     -0.43313794     -0.19872674
C      -4.39105767     -0.18994060     -0.09596855
C      -3.60596095     -1.48860874     -0.29317685
C      -2.09639550     -1.32311139     -0.09026717
C      -1.44130124     -0.41612668     -1.13531821
C       0.09013558     -0.42625901     -1.06913127
C       0.64151143      0.14956406      0.23792872
C       2.16216376      0.34153504      0.21967400
C       2.93535649     -0.97492673      0.10528998
C       4.44599347     -0.80776543      0.30469438
C       5.10791558      0.04191942     -0.78331411
C       6.63874637      0.02913599     -0.71356607
C       7.19273005      0.67991402      0.55811302
C       8.71343109      0.78578178      0.53257706
O       9.28882563     -0.51232582      0.50015722
H      -8.78204161      2.34480898      1.06786360
H      -8.71230343      2.64697886     -0.67955191
H     -10.05160046      1.71120989      0.00640514
H      -8.43413502      0.19358517     -1.08773851
H      -8.50352140     -0.10692410      0.65004176
H      -6.37974184      1.59595657     -0.76314567
H      -6.44894432      1.29529361      0.97452793
H      -6.20549015     -1.16462267      0.55871121
H      -6.13476854     -0.86409424     -1.17929445
H      -4.09510440      0.54625474     -0.85164221
H      -4.15445137      0.23747927      0.88584910
H      -3.96638823     -2.23767427      0.42287488
H      -3.80059964     -1.89097587     -1.29478483
H      -1.91113099     -0.93372600      0.91729132
H      -1.63452786     -2.31698544     -0.13730109
H      -1.79751492      0.61369689     -1.01899176
H      -1.74233539     -0.74572739     -2.13732227
H       0.47263458      0.16306020     -1.91157059
H       0.44799571     -1.45241047     -1.21072827
H       0.37236949     -0.49859105      1.07969188
H       0.17605593      1.12490070      0.42601563
H       2.45361276      0.85058000      1.14662373
H       2.42896582      1.00959878     -0.60713529
H       2.56596355     -1.67621286      0.86361263
H       2.75198552     -1.43730027     -0.87127917
H       4.90254070     -1.80517214      0.30989204
H       4.63027323     -0.36863665      1.29172914
H       4.80765676     -0.33736885     -1.76784783
H       4.75527227      1.07769416     -0.72062289
H       6.99862557     -1.00349801     -0.79522346
H       7.02449078      0.56772629     -1.58810049
H       6.76637731      1.68255965      0.67643894
H       6.89587871      0.08416846      1.42858904
H       9.05319567      1.34498461     -0.34506200
H       9.06797947      1.29700888      1.43317123
H      10.25419421     -0.39640190      0.48969515
