29
CC1(C)[C@@H](O)[C@@]2(C)CC[C@@H]1C2
C      -1.95932245     -0.51237773      1.44178014
C      -1.14991891     -0.01541351      0.22572494
C      -2.15607024      0.35887662     -0.87231580
C      -0.10448061     -1.09360939     -0.19856819
O      -0.27972244     -1.59266740     -1.51174930
C       1.25111822     -0.35176919     -0.05090385
C       2.45176781     -1.27620005     -0.02730527
C       1.37110104      0.77420472     -1.10517651
C       0.42005020      1.85207799     -0.56701679
C      -0.21932198      1.16846517      0.65582393
C       1.01059292      0.44834026      1.23211135
H      -2.64016170      0.26734558      1.80157918
H      -1.32020710     -0.80213006      2.28142514
H      -2.56240399     -1.38819841      1.17619908
H      -1.67313694      0.58680340     -1.82720163
H      -2.74604395      1.23369838     -0.57711680
H      -2.85525269     -0.46389815     -1.06128225
H      -0.12879398     -1.95245996      0.48446962
H      -1.12471192     -2.07315019     -1.53039384
H       2.56147802     -1.80240067     -0.98129719
H       3.37591470     -0.71822853      0.15775128
H       2.35579039     -2.02759056      0.76370769
H       1.09019095      0.44785931     -2.11125141
H       2.39089219      1.17335353     -1.15747365
H       0.99843431      2.72836048     -0.24867423
H      -0.29569529      2.19839364     -1.31577444
H      -0.69230124      1.87757401      1.33997635
H       0.79796327     -0.17603600      2.10464207
H       1.83225143      1.13077672      1.47831038
