26
O=C(O)C1CC1C(=O)Nc1ccc(Cl)cc1Cl
O       4.76310694      0.04638990      1.71068383
C       4.27391870      0.90539870      0.99625410
O       4.87876005      2.08698810      0.78164257
C       2.99796784      0.76616671      0.27221574
C       2.62246618     -0.54010078     -0.38170400
C       1.89703804     -0.09403534      0.86549757
C       0.49776080      0.39997804      0.80972274
O       0.25229742      1.53535279      1.18433945
N      -0.37988680     -0.54371430      0.33320354
C      -1.77588709     -0.42035413      0.14782615
C      -2.48653910      0.74596633      0.44551693
C      -3.86989253      0.80669460      0.23980916
C      -4.55083622     -0.29816049     -0.26503421
Cl     -6.25038302     -0.21404221     -0.51477469
C      -3.86491618     -1.46893782     -0.56893986
C      -2.48496646     -1.52622016     -0.36253979
Cl     -1.66538820     -3.00140132     -0.75594947
H       5.69440548      2.03838917      1.32154471
H       2.68301302      1.66888652     -0.24513957
H       3.31066355     -1.37423238     -0.29375573
H       2.11176923     -0.48722287     -1.33662978
H       2.13394322     -0.61022403      1.79172572
H       0.01150148     -1.44612756      0.08146164
H      -1.99587163      1.63054424      0.84135398
H      -4.40521432      1.72310031      0.47810672
H      -4.39883039     -2.32908204     -0.96297017
