6
C=C(F)F
C      -0.69818038     -0.06723430     -0.08669298
C       0.61736648      0.05945202      0.07665828
F       1.39869998     -1.03849752      0.10959045
F       1.16265811      1.28515463      0.20845323
H      -1.14602996     -1.04717842     -0.19347645
H      -1.33451423      0.80830359     -0.11453253
