29
CCCCn1c(O)c(C#N)c(C)cc1=O
C       4.49248585     -0.36083828      0.59145874
C       3.49919363      0.07741875     -0.47279553
C       2.06355949      0.02960991      0.04778556
C       1.06741771      0.47188597     -1.02735922
N      -0.31354952      0.44271094     -0.53585242
C      -1.06055356     -0.72803472     -0.60784462
O      -0.40498130     -1.79775006     -1.18493057
C      -2.32643124     -0.77904741     -0.13488213
C      -3.08273750     -1.98583700     -0.21454241
N      -3.65718179     -2.98995375     -0.30185523
C      -2.92366205      0.41244653      0.46598448
C      -4.33746477      0.35932306      0.97682282
C      -2.20065761      1.54003300      0.55697734
C      -0.80556460      1.60319152      0.05652197
O      -0.17970917      2.65104637      0.18977661
H       4.43997220      0.29105256      1.46930812
H       5.51287114     -0.31899455      0.19780672
H       4.29449432     -1.38813716      0.91363739
H       3.59941684     -0.57437791     -1.34846084
H       3.74458626      1.09574345     -0.79599015
H       1.96781643      0.67666413      0.92855642
H       1.82600011     -0.98828072      0.38008883
H       1.30896441      1.49430493     -1.34384341
H       1.15579968     -0.14747757     -1.92782037
H      -0.97337259     -2.58696576     -1.20810487
H      -4.43685341     -0.38949914      1.76997936
H      -4.65467861      1.32044584      1.39688781
H      -5.03417791      0.11356178      0.16816293
H      -2.58100243      2.45575527      0.99452668
