19
Cc1nc2c(=O)[nH]cnc2[nH]c1=O
C       3.06488186     -0.95942761     -0.45591006
C       1.71004861     -0.37497183     -0.18512469
N       0.63088708     -1.05055133     -0.46227887
C      -0.57363409     -0.43227862     -0.17892513
C      -1.86199845     -1.14035895     -0.46728075
O      -1.92751968     -2.26560523     -0.95238286
N      -2.99774154     -0.44676312     -0.15232592
C      -2.96176475      0.80154269      0.38632339
N      -1.87572442      1.44312432      0.64869967
C      -0.70541681      0.79999193      0.35507271
N       0.41931707      1.51462855      0.64847768
C       1.67951610      1.02923085      0.42175774
O       2.71020350      1.63323534      0.66865602
H       3.62723187     -1.02802004      0.47916653
H       3.60502318     -0.32028377     -1.15950994
H       2.96985477     -1.95998395     -0.88675740
H      -3.87178158     -0.91518159     -0.34278794
H      -3.95389556      1.23571393      0.58728645
H       0.31251284      2.43595843      1.04784338
