27
COC(=O)n1cnc2c1c(=O)n(C)c(=O)n2C
C      -4.29287260      0.48876080      0.34568217
O      -2.90019913      0.21864949      0.19265950
C      -2.55887922     -1.06678247      0.41101182
O      -3.29902622     -2.00691901      0.65893426
N      -1.18374694     -1.26707176      0.24585330
C      -0.61426278     -2.52658496      0.13830912
N       0.67082141     -2.48799385     -0.13689160
C       0.96203653     -1.16404686     -0.15647634
C      -0.12480201     -0.38524690      0.12187952
C      -0.01631460      1.02843110      0.26809105
O      -0.89695409      1.74349789      0.73495267
N       1.23746232      1.52618807     -0.10997736
C       1.42876279      2.96259601     -0.03756608
C       2.38195747      0.74745873     -0.36070307
O       3.48642868      1.26955086     -0.53398877
N       2.20966084     -0.63490214     -0.38602774
C       3.33900111     -1.51320556     -0.63936822
H      -4.45086368      1.55880093      0.18540178
H      -4.87255319     -0.06393993     -0.40014781
H      -4.62460360      0.23689436      1.35791358
H      -1.20885209     -3.42701230      0.24188660
H       0.48810656      3.49752522     -0.19799111
H       2.15038336      3.29505448     -0.79003880
H       1.81484514      3.20958637      0.95654878
H       3.49956423     -2.14829789      0.23758369
H       4.25631199     -0.95254269     -0.83709032
H       3.11858771     -2.13844800     -1.51044061
