42
CCOC(=O)C(C)(C(=O)NC(=O)NC)C1=CCCCC1
C      -1.64121306      4.79475515     -0.80570508
C      -1.02553845      3.77894492      0.13627734
O      -0.81028551      2.56514188     -0.59576069
C      -0.26040723      1.55382848      0.12807080
O       0.03219894      1.64241718      1.31816162
C      -0.06058436      0.26437265     -0.69296125
C      -0.46475927      0.44717825     -2.17003940
C       1.45267016     -0.09449469     -0.64089101
O       2.10583450     -0.35953648     -1.65342367
N       2.00213272     -0.15629147      0.63490030
C       3.26568124     -0.52728707      1.02082523
O       3.53938300     -0.63649957      2.21237923
N       4.15515974     -0.75305187      0.01372486
C       5.47454493     -1.26840604      0.26217138
C      -0.93587330     -0.86962161     -0.09573687
C      -0.53619453     -2.15713223     -0.00796545
C      -1.36168925     -3.27158613      0.57250910
C      -2.60062634     -2.78610079      1.31921694
C      -3.28474011     -1.66371948      0.55278483
C      -2.33547200     -0.47880643      0.35887474
H      -0.98093948      4.97803093     -1.65984710
H      -2.58796515      4.42123137     -1.20977877
H      -1.82553745      5.74220653     -0.29172063
H      -1.70678886      3.58918161      0.97321134
H      -0.06904566      4.15603068      0.51497007
H       0.14327165      1.22126047     -2.65408721
H      -0.32427993     -0.47830596     -2.74176974
H      -1.51443914      0.74292667     -2.27862821
H       1.40174808      0.05128423      1.42729619
H       3.76784554     -0.81812733     -0.92541478
H       5.90677426     -0.79805972      1.14942869
H       6.09823798     -1.06348000     -0.61085615
H       5.40382299     -2.34763967      0.42119735
H       0.43670227     -2.47171230     -0.38212882
H      -1.66192041     -3.93635762     -0.24642353
H      -0.74212462     -3.86449447      1.25497809
H      -3.29408884     -3.62117208      1.46902111
H      -2.31428490     -2.42669357      2.31586198
H      -4.18097824     -1.33298105      1.08973143
H      -3.61705447     -2.03492117     -0.42507394
H      -2.79353234      0.20345925     -0.36601596
H      -2.25564505      0.06422856      1.30863562
