17
O=c1[nH]c2ccccc2c(=O)o1
O       3.73033785     -0.86155419      0.43469298
C       2.62460274     -0.33650538      0.33858113
N       1.52767496     -1.10931694      0.08618023
C       0.25124622     -0.59520613     -0.03593482
C      -0.83426846     -1.43058322     -0.29428119
C      -2.11157664     -0.87828046     -0.41188859
C      -2.29660244      0.49865046     -0.27147608
C      -1.20280259      1.32626033     -0.01287575
C       0.07434900      0.76801866      0.10398942
C       1.25385545      1.60040992      0.37555826
O       1.12447944      2.81350689      0.50412395
O       2.46205325      1.00372534      0.47778678
H       1.70702331     -2.10064088     -0.00824212
H      -0.70453385     -2.50370240     -0.40580402
H      -2.96578436     -1.52133926     -0.61345056
H      -3.29238569      0.92715350     -0.36341447
H      -1.34766818      2.39940376      0.09645486
