44
CN1CCCC(CN2c3ccccc3Sc3ccccc32)C1
C       3.10044262     -1.98545704     -1.94300590
N       2.90342972     -1.09913084     -0.79465411
C       3.25884769      0.28244122     -1.15233762
C       3.09559654      1.22039459      0.04433124
C       1.67918060      1.15366123      0.61097762
C       1.29974763     -0.30054812      0.91854986
C      -0.08766878     -0.47008659      1.58030037
N      -1.25524025     -0.09635529      0.74169699
C      -1.73500848     -1.07026367     -0.17429050
C      -1.83704992     -2.42927783      0.18549246
C      -2.31144397     -3.39715915     -0.70614632
C      -2.71196670     -3.02847696     -1.98226308
C      -2.65029335     -1.69006273     -2.35828706
C      -2.17976869     -0.71315256     -1.46403154
S      -2.12125148      0.96330460     -2.06578210
C      -2.01863770      1.87374763     -0.53702640
C      -2.34579002      3.23962386     -0.59117049
C      -2.27453976      4.03422810      0.54906957
C      -1.88282568      3.46592142      1.75259991
C      -1.55071979      2.10821365      1.81026290
C      -1.58677274      1.28267854      0.66831411
C       1.50571895     -1.17657227     -0.32710548
H       4.14598965     -1.96400095     -2.26990505
H       2.87896621     -3.02316147     -1.66981806
H       2.46681526     -1.70986896     -2.79387679
H       2.64317922      0.64163635     -1.98771840
H       4.30540403      0.32324978     -1.47789990
H       3.81676113      0.95049503      0.82621551
H       3.32319951      2.24876167     -0.25851624
H       0.99623101      1.58431768     -0.12807881
H       1.61697143      1.76658927      1.51704671
H       2.01723737     -0.65490201      1.67531591
H      -0.16557498     -1.50623402      1.92559409
H      -0.08170877      0.09007044      2.52117519
H      -1.58537867     -2.76285049      1.18746616
H      -2.37793801     -4.43608870     -0.39302131
H      -3.08282958     -3.77518595     -2.67904582
H      -2.97507793     -1.40808517     -3.35753225
H      -2.66147982      3.69130312     -1.52909932
H      -2.53458472      5.08792767      0.49778928
H      -1.84493226      4.07164422      2.65446770
H      -1.29808640      1.70300286      2.78501875
H       0.83092779     -0.86981746     -1.13405687
H       1.27192207     -2.21647471     -0.06853764
