28
O=C(OCc1ccccc1)n1cc(F)c(=O)[nH]c1=O
O       0.50257540     -0.29103109     -2.19445389
C       0.86160999      0.30890025     -1.18145006
O       0.10916322      1.27500838     -0.59458351
C      -1.17838132      1.52464128     -1.16864252
C      -2.21053540      0.66410787     -0.48767752
C      -2.58673828      0.92602913      0.83747930
C      -3.53201416      0.12259869      1.47654785
C      -4.10478593     -0.95289822      0.80011508
C      -3.72983339     -1.22883589     -0.51367257
C      -2.78467688     -0.42629242     -1.15465713
N       2.08193056      0.05297663     -0.52776091
C       2.86178661     -0.99548783     -1.01328555
C       4.03124267     -1.33742090     -0.47644492
F       4.77613239     -2.34919325     -0.95675708
C       4.55007609     -0.59807596      0.68325950
O       5.62876163     -0.84527810      1.20591775
N       3.72545304      0.40013685      1.12749090
C       2.52987599      0.80699233      0.56736807
O       1.98575342      1.79396993      1.05723681
H      -1.41707276      2.58061826     -0.99602863
H      -1.17939278      1.38956933     -2.25709236
H      -2.13750787      1.75661409      1.37876346
H      -3.81872811      0.33425866      2.50333748
H      -4.84013539     -1.57905097      1.29843878
H      -4.17096032     -2.07196712     -1.03898763
H      -2.49244972     -0.66131669     -2.17646250
H       2.48149775     -1.54860513     -1.86816524
H       4.05735356      0.94903188      1.90720637
