18
FC(F)(F)N1C(F)(F)C(F)(F)OC(F)(F)C1(F)F
F       2.41946024      1.02537968      1.08917763
C       1.70596903     -0.04466845      0.68651130
F       2.58253045     -1.05894601      0.54833112
F       0.86220158     -0.36715914      1.67492965
N       1.03105631      0.21933185     -0.53439138
C       0.25120876     -0.94085537     -0.92634459
F       1.03478419     -2.04932248     -0.92053361
F      -0.04869982     -0.74111877     -2.24634953
C      -1.11832878     -1.24043170     -0.18421015
F      -1.79411644     -2.22641979     -0.82695053
F      -0.91808618     -1.68499168      1.07660046
O      -1.99710129     -0.12750420     -0.11076909
C      -1.29335640      0.99671788      0.39629148
F      -1.11251093      0.80008316      1.72143445
F      -2.12947238      2.05999947      0.28530062
C       0.07616045      1.29656043     -0.34577373
F      -0.24114082      1.71860412     -1.60809393
F       0.68944205      2.36474102      0.22483982
