30
c1ccc2c(c1)c1ccccc1c1ccccc21
C      -3.51174913     -1.37999022      0.28018350
C      -3.77303664     -0.02880643      0.28040515
C      -2.71043825      0.86876459      0.18880654
C      -1.34772017      0.46295923      0.09343852
C      -1.07795257     -0.93206476      0.09322235
C      -2.19113525     -1.81667976      0.18838064
C       0.27520782     -1.40131085     -0.00052427
C       0.60730401     -2.78711848     -0.00548716
C       1.91483948     -3.26182045     -0.09577841
C       2.95102120     -2.36057125     -0.18547746
C       2.66669281     -0.99591154     -0.18375554
C       1.34501250     -0.47082197     -0.09312501
C       1.07250802      0.93834694     -0.09290648
C       2.10313647      1.91835151     -0.18329692
C       1.85820552      3.29063035     -0.18460458
C       0.56072761      3.74056459     -0.09472471
C      -0.47556207      2.81258996     -0.00465132
C      -0.26706527      1.40288155     -0.00010292
H      -4.32274950     -2.09920949      0.35057825
H      -4.79369785      0.33619753      0.35095439
H      -2.98526833      1.91908432      0.19427253
H      -2.05457448     -2.89373972      0.19355798
H      -0.16223488     -3.54996148      0.06243245
H       2.11084059     -4.33024828     -0.09515317
H       3.97848046     -2.70581119     -0.25681756
H       3.52858970     -0.33978609     -0.25701481
H       3.14749710      1.63086306     -0.25672788
H       2.68287019      3.99406230     -0.25579442
H       0.34426509      4.80503418     -0.09377033
H      -1.47401419      3.23352185      0.06348068
