14
O=C([O-])[O-].O=C([O-])[O-].O=C([O-])[O-].[Nd+3].[Nd+3]
O      -0.16976569      1.26244446     -0.01160328
C       0.00540924      0.02781063     -0.00030526
O      -1.11859151     -0.78021914      0.01374506
O       1.28294796     -0.51003596     -0.00183652
O      -0.03098254      1.27777340     -0.06379562
C       0.00601332      0.03526206     -0.00181559
O      -1.18567831     -0.68579104      0.04371871
O       1.21064754     -0.62724442      0.02189249
O      -0.00984206      1.28273552      0.00659863
C      -0.00552330      0.02700137      0.00024099
O      -1.19608416     -0.66345122      0.01965376
O       1.21144951     -0.64628568     -0.02649338
Nd      0.00000000      0.00000000      0.00000000
Nd      0.00000000      0.00000000      0.00000000
