61
CC/C=C/CCCCCCCCCCCCCCOCC
C      -9.70387762      1.63806037     -0.37434353
C      -8.54125678      1.02962191      0.39583563
C      -7.40374396      0.67848256     -0.51888751
C      -6.93388592     -0.56823597     -0.68465271
C      -5.79397104     -0.92106686     -1.59791527
C      -4.60336414     -1.53914187     -0.85671973
C      -3.89256917     -0.54014173      0.06254338
C      -2.72107341     -1.14829570      0.84085257
C      -1.59693376     -1.76466665      0.00020969
C      -0.96183500     -0.77882574     -0.98485390
C       0.17898218     -1.39207830     -1.80331864
C       1.41066265     -1.83507662     -1.00710926
C       2.09240153     -0.68722309     -0.26072279
C       3.40515927     -1.14046025      0.38350645
C       4.09635347      0.01699626      1.10539880
C       5.42643157     -0.42523542      1.71880260
C       6.08413742      0.65412677      2.58539128
C       6.44253661      1.93614756      1.83887149
O       7.32216328      1.62938705      0.75914365
C       7.64975077      2.79045477      0.00042701
C       8.61957583      2.38884742     -1.09329215
H     -10.51761903      1.89202995      0.31209122
H      -9.40147018      2.55471854     -0.89250523
H     -10.09477374      0.93769686     -1.12067674
H      -8.18362222      1.74760408      1.14414717
H      -8.89313061      0.14674823      0.94283095
H      -6.94221128      1.50426251     -1.05724460
H      -7.39280498     -1.39373563     -0.14396866
H      -5.45786865     -0.04465120     -2.16559871
H      -6.16409115     -1.64456413     -2.33395547
H      -4.93409841     -2.40868832     -0.27558744
H      -3.89911431     -1.90964416     -1.60999742
H      -3.54777434      0.32090053     -0.52219768
H      -4.60472078     -0.14469424      0.79686321
H      -2.29334898     -0.36661954      1.48337685
H      -3.10878448     -1.92293417      1.51581286
H      -0.83514523     -2.13666830      0.69644627
H      -1.97269001     -2.64141329     -0.54234073
H      -0.61189442      0.11355046     -0.45072804
H      -1.72311979     -0.43490123     -1.69666308
H       0.49334816     -0.65936949     -2.55703558
H      -0.20558222     -2.25694881     -2.35824703
H       1.14301264     -2.62991597     -0.30238371
H       2.12502996     -2.27768433     -1.71276855
H       2.29257835      0.13512490     -0.95741869
H       1.42740565     -0.29977996      0.51844050
H       4.07285742     -1.54198913     -0.38594232
H       3.20547681     -1.95032408      1.09326878
H       4.26864239      0.83009763      0.39260438
H       3.43753185      0.40520905      1.89082773
H       5.25857922     -1.30909191      2.34601530
H       6.11459322     -0.73339307      0.92271719
H       7.00201389      0.22485015      3.00594119
H       5.42736966      0.89912167      3.42839357
H       6.94469975      2.62523054      2.52790925
H       5.54128633      2.42987012      1.45909714
H       6.74103616      3.20368265     -0.44469625
H       8.10913243      3.54365727      0.65036676
H       9.55038322      2.00392329     -0.65928711
H       8.85574180      3.23761038     -1.73835554
H       8.19750210      1.58742022     -1.70871884
