22
CN(C)c1ncnc2nccnc12
C       2.79612275      0.88854449      0.35551341
N       1.63099984      0.01035181      0.42301619
C       1.84395991     -1.36135662     -0.02968020
C       0.39745974      0.61914754      0.09258372
N       0.44108542      1.94966361     -0.15762291
C      -0.70195156      2.56385341     -0.45291120
N      -1.89479198      1.98866219     -0.52344705
C      -1.94645909      0.69054174     -0.26480779
N      -3.16458671      0.14149074     -0.33032881
C      -3.28654150     -1.17502654     -0.06606575
C      -2.20609598     -1.95544213      0.25756269
N      -0.96627879     -1.43933475      0.32384077
C      -0.82169932     -0.09606629      0.06214282
H       2.66813690      1.77902484      0.98193089
H       3.00568037      1.19394944     -0.67602289
H       3.68410472      0.37343447      0.73961312
H       1.50154484     -1.50991906     -1.06010822
H       2.90953683     -1.61918836     -0.00788502
H       1.35520030     -2.07692166      0.63801465
H      -0.65286577      3.62840832     -0.65390589
H      -4.28991324     -1.58086373     -0.12366618
H      -2.30264767     -3.01295344      0.47223363
