55
O=S(=O)(NCC(c1ccccc1)N1CCCCCC1)c1ccccc1OC(F)(F)F
O       2.28909003     -2.30674839     -2.65838644
S       2.37462472     -1.77695173     -1.31594381
O       3.10998329     -2.45270365     -0.26972616
N       0.79087503     -1.60486956     -0.77736636
C       0.54770563     -1.60933864      0.68315420
C      -0.88451487     -1.09028944      1.06300563
C      -1.90541746     -2.13396988      0.58209090
C      -2.27501905     -3.19107510      1.43156235
C      -3.18175730     -4.16393696      1.00405841
C      -3.72804376     -4.09603263     -0.27660464
C      -3.37126355     -3.05538825     -1.13231479
C      -2.46603022     -2.08193945     -0.70684062
N      -1.22720729      0.29769297      0.61598655
C      -2.50205374      0.76288305      1.19099555
C      -3.30845426      1.54497778      0.14886713
C      -2.79750759      2.94546305     -0.17867321
C      -1.31804824      3.03310184     -0.54406233
C      -0.41836222      2.73369573      0.65175744
C      -0.13109545      1.24361170      0.87533314
C       2.90921448     -0.09111728     -1.45822072
C       2.13460163      0.76590463     -2.25666343
C       2.49131040      2.10634224     -2.39618030
C       3.62866435      2.59020886     -1.75488156
C       4.41181236      1.73497390     -0.97705982
C       4.04679659      0.39318536     -0.80983061
O       4.87562400     -0.43413375     -0.10827110
C       4.81797610     -0.19199991      1.29462277
F       3.54266123     -0.05677063      1.72635199
F       5.38737644     -1.22699790      1.95096361
F       5.50651355      0.92955344      1.60915294
H       0.13134770     -2.13802324     -1.34661066
H       1.30078243     -0.99620064      1.18728062
H       0.66912802     -2.63717219      1.04609664
H      -0.91643939     -1.08324584      2.16299097
H      -1.85997081     -3.26507455      2.43496678
H      -3.46182895     -4.97730267      1.67029859
H      -4.43435011     -4.85315886     -0.60906803
H      -3.79954585     -3.00015229     -2.13089911
H      -2.20300031     -1.27059940     -1.38432391
H      -2.35382892      1.34696388      2.10829413
H      -3.13553580     -0.07962423      1.49454054
H      -3.37337534      0.96279643     -0.77884149
H      -4.34041095      1.63993258      0.51162717
H      -3.38945968      3.33878259     -1.01436593
H      -3.00006115      3.60685616      0.67197108
H      -1.08295240      2.38039039     -1.39240282
H      -1.11902512      4.06077627     -0.87298963
H      -0.84435534      3.17206086      1.56268204
H       0.54495369      3.23790575      0.49873728
H       0.23881935      1.12991985      1.90355497
H       0.70231753      0.99401273      0.21431910
H       1.25167006      0.38790467     -2.77005751
H       1.88802026      2.76928390     -3.01284737
H       3.91855454      3.63165026     -1.87712327
H       5.31849170      2.12398620     -0.51873186
