38
CC(C)(CCC(C)(C)CC(=O)O)CC(=O)O
C      -1.45420052     -0.99147524      2.15961142
C      -1.77362289     -0.79457313      0.66278902
C      -2.65731975     -1.97976169      0.21632055
C      -0.46181067     -0.83009809     -0.17664899
C       0.54850077      0.29127702      0.12469860
C       1.85444823      0.27123346     -0.72427215
C       2.64599698     -1.02882740     -0.49053519
C       1.52527696      0.37409731     -2.22852692
C       2.72903738      1.50127629     -0.36520859
C       3.17745388      1.55854916      1.07164050
O       4.10579929      0.94186850      1.56653526
O       2.42449166      2.38307681      1.82380138
C      -2.55762457      0.52991368      0.51182754
C      -2.92357773      0.87998841     -0.90673042
O      -2.20135784      1.41517327     -1.73074597
O      -4.18195730      0.52388840     -1.22538052
H      -0.84984110     -1.89106968      2.32127568
H      -2.37345833     -1.10040482      2.74693332
H      -0.90674416     -0.13884711      2.57432522
H      -2.87902427     -1.93693288     -0.85542036
H      -3.61118009     -1.98921684      0.75574230
H      -2.15887613     -2.93694046      0.40844570
H      -0.72720101     -0.80654375     -1.23914342
H       0.02519538     -1.79888115     -0.00935491
H       0.82067455      0.23290361      1.18423943
H       0.06357785      1.26353546     -0.01962943
H       3.63110665     -0.98105974     -0.96855095
H       2.79902913     -1.22104834      0.57653057
H       2.12761445     -1.89810740     -0.90908474
H       1.00175511     -0.51437557     -2.59578715
H       2.43959044      0.47370511     -2.82520528
H       0.89616714      1.24686338     -2.43606785
H       2.19423274      2.43197434     -0.59695470
H       3.63757799      1.52725455     -0.98112689
H       2.82450622      2.31926423      2.71620482
H      -1.99470849      1.37773848      0.92054661
H      -3.48211671      0.49502438      1.10402110
H      -4.27741123      0.79955744     -2.16111459
