25
Cc1cc(C)c([PH](=O)O)c(C)c1
C      -3.40383725     -0.71138068      0.41177124
C      -1.95661167     -0.40022228      0.16868213
C      -1.45189208      0.87461432      0.43384631
C      -0.09244920      1.17595899      0.24275038
C       0.37402371      2.57738886      0.52944017
C       0.78605011      0.17726536     -0.23629099
P       2.52386428      0.50791513     -0.52588304
O       2.88895960      1.93460884     -0.84056793
O       3.18057775      0.15970391      0.91932369
C       0.28085348     -1.12340673     -0.47498994
C       1.17394028     -2.23432140     -0.95737730
C      -1.08146802     -1.39516064     -0.27014606
H      -3.54548622     -1.05070399      1.44246726
H      -3.75558585     -1.49294553     -0.26991093
H      -4.02773455      0.17221415      0.24069339
H      -2.12904914      1.64835612      0.79338695
H       1.26683154      2.56688591      1.16163700
H       0.57902695      3.10691843     -0.40557104
H      -0.38709927      3.14784877      1.07326097
H       3.07117580     -0.51739413     -1.32288509
H       2.97153170      0.84403054      1.58353553
H       2.03130808     -2.35466891     -0.28779076
H       1.52332525     -2.02283726     -1.97266530
H       0.64654777     -3.19403510     -0.98071423
H      -1.46680306     -2.39663270     -0.45600240
