37
O=C(COC(=O)c1ccccc1)NC(CO)(CO)CO
O      -2.16115064     -1.82413222     -2.05328240
C      -1.25500579     -1.42227821     -1.32800273
C       0.19721262     -1.86674475     -1.49925252
O       1.06815517     -1.04461721     -0.71316419
C       2.37769057     -1.37402852     -0.82212608
O       2.82562730     -2.27414985     -1.51375213
C       3.21764028     -0.48129456      0.02234013
C       2.67291759      0.52594747      0.83153922
C       3.51066922      1.33350072      1.60500970
C       4.89141919      1.14120514      1.57528937
C       5.44022760      0.14153135      0.77356296
C       4.60688669     -0.66821501     -0.00079331
N      -1.46404012     -0.56782551     -0.27448103
C      -2.70933923      0.19146683      0.00667483
C      -2.96263262      1.22866761     -1.11962558
O      -1.91152071      2.20616410     -1.16128234
C      -2.47102641      0.92073175      1.35822926
O      -1.23337478      1.64521418      1.34305414
C      -3.94120468     -0.73496539      0.17317612
O      -4.49343306     -1.16647697     -1.06647986
H       0.27006030     -2.90976186     -1.17286246
H       0.45456447     -1.76661042     -2.55936544
H       1.60074296      0.69873511      0.87706318
H       3.08327026      2.11276280      2.23215577
H       5.54054751      1.77119222      2.17889414
H       6.51689290     -0.00875589      0.75113353
H       5.04636139     -1.44627658     -0.62253534
H      -0.61979138     -0.14539156      0.10785240
H      -3.01015990      0.75209885     -2.10413642
H      -3.90237200      1.76441206     -0.94694545
H      -2.05341883      2.71843042     -1.97987290
H      -2.40572906      0.20115900      2.18181612
H      -3.27959070      1.62441569      1.58361482
H      -1.24282082      2.16438064      0.50700118
H      -3.69173825     -1.62224634      0.76585358
H      -4.74412681     -0.20395143      0.69634522
H      -3.76841023     -1.61429366     -1.55965627
