56
CC(C)(C)CCCCC1(C(=O)OC(C)(C)CC(C)(C)C)OO1
C       5.97524176     -0.57872989     -1.65515892
C       5.02762332      0.35603787     -0.87918066
C       5.87817642      1.25846157      0.03192506
C       4.26657601      1.22864874     -1.89322981
C       4.05109695     -0.52254525     -0.04636731
C       3.01034157      0.24623423      0.77854672
C       2.17004442     -0.65706887      1.69158654
C       1.31541799     -1.70557120      0.97660488
C       0.27848365     -1.11944174      0.06702573
C      -0.72419467     -0.13536307      0.52785001
O      -0.51212714      1.06884794      0.49304615
O      -1.83072929     -0.75103887      1.02181782
C      -2.93966510      0.01162767      1.56753833
C      -3.87905571     -1.04221205      2.17090387
C      -2.45424788      0.89514408      2.73738671
C      -3.64426845      0.89583268      0.49865085
C      -4.34353920      0.27361040     -0.75616959
C      -4.57328485      1.42053938     -1.77292108
C      -3.50432799     -0.80432102     -1.45353194
C      -5.73274304     -0.30242688     -0.41217726
O      -0.20432853     -2.03912471     -0.92564875
O       0.69060273     -0.96715108     -1.29858443
H       6.69859294     -0.00798781     -2.25160355
H       5.41701948     -1.22644441     -2.34205036
H       6.54264986     -1.22182788     -0.97138058
H       5.27511316      2.02810607      0.52648041
H       6.37754012      0.67305494      0.80944373
H       6.65372826      1.77818484     -0.54189004
H       3.63076828      1.96878313     -1.39640884
H       3.62750923      0.61516101     -2.54224896
H       4.96262373      1.78225737     -2.53631404
H       3.52948770     -1.20525680     -0.73155869
H       4.63536479     -1.15793476      0.63476226
H       2.34962587      0.81689755      0.11807543
H       3.51431892      0.97566991      1.42246267
H       2.83838156     -1.17188288      2.39243636
H       1.52151700     -0.01725056      2.30339559
H       0.79852454     -2.30372082      1.73811978
H       1.95881004     -2.40644384      0.43204322
H      -4.82873120     -0.60440746      2.49659489
H      -3.41446443     -1.52132560      3.04209022
H      -4.07504534     -1.85829771      1.46970054
H      -1.85783989      1.74483184      2.39001526
H      -1.81983429      0.32228722      3.42617055
H      -3.30106532      1.30312349      3.30216173
H      -4.38713510      1.51958355      1.01732415
H      -2.89421538      1.60540201      0.12247426
H      -5.09414410      1.06335093     -2.66919507
H      -3.62252995      1.85984663     -2.09810450
H      -5.18014277      2.22165781     -1.33521525
H      -3.98959671     -1.14176104     -2.38012408
H      -3.37199392     -1.69051358     -0.82441656
H      -2.51647680     -0.41982150     -1.72865266
H      -6.34011750      0.42709737      0.13401096
H      -5.67617808     -1.21214743      0.19042553
H      -6.28315768     -0.56826154     -1.32620139
