15
FC(F)(F)c1ccc(Cl)cc1
F      -2.87825727      0.90477468     -0.47204978
C      -2.23773188     -0.14360230      0.11624464
F      -2.73920130     -1.26393967     -0.47437204
F      -2.67215806     -0.17283798      1.40575034
C      -0.73316298     -0.04703030      0.02073004
C       0.05641219     -1.20845973     -0.00691533
C       1.44940328     -1.11854794     -0.07393834
C       2.06229291      0.13234344     -0.10696828
Cl      3.77694576      0.24236983     -0.18891349
C       1.29467369      1.29464703     -0.07139578
C      -0.09838456      1.20578156     -0.00437180
H      -0.41300662     -2.19126063      0.02198148
H       2.04854975     -2.02540428     -0.09841610
H       1.77309515      2.27064429     -0.09388971
H      -0.68947005      2.12052199      0.02652414
