42
CC(C)NCC(O)COc1cccc2ccccc12.Cl
C       4.96811662      1.26017221      0.08754403
C       3.76174806      0.47359984      0.55503243
C       4.28908533     -0.73603415      1.28859183
N       3.00089467      0.11996983     -0.61701902
C       1.75038726     -0.51505875     -0.34128075
C       1.11317138     -0.81040754     -1.71368208
O       0.96044715      0.37051454     -2.35700321
C      -0.08581470     -1.68550392     -1.56899921
O      -1.11238319     -1.17090883     -0.89092193
C      -2.03041552     -0.20068312     -0.88353825
C      -2.20377479      0.76381638     -1.84627892
C      -3.18047864      1.72789586     -1.75810163
C      -4.02230492      1.74197536     -0.67685858
C      -3.89825154      0.79827204      0.32261213
C      -4.77667855      0.84355539      1.41135913
C      -4.64362427     -0.09017041      2.38585820
C      -3.66734795     -1.05839784      2.30428470
C      -2.80922317     -1.08988433      1.22509855
C      -2.92140871     -0.14824419      0.21363817
Cl      0.69031196      0.00000000      0.00000000
H       5.20308820      0.95674486     -0.95205642
H       5.83568936      1.12480793      0.76413046
H       4.64074371      2.33798102      0.03478313
H       3.20619756      1.09330375      1.26637288
H       3.90322107     -1.69061429      0.83446236
H       4.00442714     -0.72382661      2.35493319
H       5.40636411     -0.83297851      1.21064317
H       3.61117967     -0.44279347     -1.24450686
H       1.83152252     -1.43713281      0.26554689
H       1.06494760      0.21145117      0.14213151
H       1.89195233     -1.42140627     -2.24616333
H       1.29434503      1.11494913     -1.80704166
H       0.18608039     -2.71297455     -1.20533775
H      -0.42959640     -1.88741782     -2.64385881
H      -1.57761011      0.78349963     -2.72741818
H      -3.30540028      2.49091696     -2.53379378
H      -4.79941553      2.49921660     -0.59354021
H      -5.53069473      1.63715196      1.41850435
H      -5.32907242     -0.05997153      3.24206837
H      -3.56854586     -1.80195151      3.08970123
H      -2.03156787     -1.83343402      1.12680899
H      -0.69031196      0.00000000      0.00000000
