26
c1ccc(N=NNc2ccccc2)cc1
C       4.73657806      0.96160216      0.40324899
C       4.49652071      0.14339692     -0.70011126
C       3.29199999     -0.55637687     -0.80017623
C       2.31604984     -0.43774886      0.19526011
N       1.12087633     -1.17106552      0.09637663
N       0.19072747     -0.41935585     -0.25597416
N      -0.90964532     -1.19539785     -0.32420323
C      -2.17682275     -0.58491610     -0.26541853
C      -2.36741305      0.78061229     -0.51678081
C      -3.64783765      1.34187808     -0.51118621
C      -4.76061807      0.53851883     -0.27664354
C      -4.59384953     -0.82639663     -0.05832976
C      -3.31190819     -1.38392076     -0.06434867
C       2.57220716      0.37829705      1.30441680
C       3.77579623      1.07905040      1.40691413
H       5.67382288      1.50703737      0.48159510
H       5.24549117      0.04916206     -1.48209118
H       3.10613865     -1.19501686     -1.65973802
H      -0.83453887     -2.07951338      0.16617912
H      -1.51512728      1.42405166     -0.72105058
H      -3.77235687      2.40512263     -0.69837009
H      -5.75632178      0.97388297     -0.27562392
H      -5.46062720     -1.46025443      0.10893339
H      -3.20662798     -2.45477175      0.08971738
H       1.82496545      0.46785387      2.08858091
H       3.96252062      1.71426859      2.26882363
