48
N#CC1([NH+]2CCCCC2)CC[NH+](Cc2ccccc2)CC1
N      -1.30003110      0.88099023      3.41975476
C      -1.27721681      0.52227446      2.32071526
C      -1.20926133      0.04640658      0.91232143
N      -2.64729854      0.12658106      0.27048638
C      -2.81474443     -0.44125340     -1.12617211
C      -4.08275123      0.12924152     -1.75422758
C      -5.23220539      0.29506498     -0.76236538
C      -5.07029765     -0.63621527      0.42740262
C      -3.77634060     -0.37699752      1.19699177
C      -0.66992282     -1.39473453      0.86679751
C       0.76099421     -1.48521904      1.40509329
N       1.65730851     -0.53096255      0.66187744
C       3.10345954     -0.64094798      1.19428368
C       4.10120255      0.01165061      0.28026548
C       4.67893216      1.24469223      0.62042899
C       5.57765372      1.86595702     -0.24732914
C       5.91042986      1.26300779     -1.45773091
C       5.35257340      0.03409799     -1.80143802
C       4.45255411     -0.59193237     -0.93819614
C       1.17989498      0.90183489      0.66573872
C      -0.25506192      0.97633903      0.13410986
H      -2.85072727      1.13578213      0.17854905
H      -2.85933222     -1.53183943     -1.03378666
H      -1.94639554     -0.17147597     -1.73000052
H      -4.39154947     -0.53003684     -2.57438717
H      -3.86803832      1.10272873     -2.21194890
H      -6.18728515      0.11038553     -1.26676738
H      -5.26231751      1.33291746     -0.40742385
H      -5.92326530     -0.53314563      1.10793905
H      -5.08395523     -1.67638360      0.07742847
H      -3.43449578     -1.29189324      1.68921191
H      -3.93237442      0.41001317      1.94191598
H      -1.30244494     -2.07294553      1.45145360
H      -0.66902656     -1.77138393     -0.16331439
H       1.15742916     -2.49425961      1.24880703
H       0.82089791     -1.23985577      2.47082688
H       1.75607600     -0.84189753     -0.31729096
H       3.11067889     -0.20614427      2.20050451
H       3.33280502     -1.70968515      1.28079506
H       4.45607109      1.73540224      1.56675138
H       6.03627381      2.81613503      0.02322563
H       6.62387647      1.74325617     -2.12597995
H       5.63999352     -0.44078714     -2.73846872
H       4.06001306     -1.56522805     -1.22602018
H       1.26670761      1.28207313      1.68892813
H       1.83797315      1.47944876      0.01004268
H      -0.22866083      0.71161550     -0.92841827
H      -0.59879838      2.01732811      0.18939358
