21
C=CC(=O)NCNC(=O)C=C
C      -3.52547864      1.32399012      2.24213479
C      -3.05925975      1.02676191      1.02263766
C      -1.89632949      0.11762197      0.86260162
O      -1.31612313     -0.39331012      1.81142327
N      -1.53339328     -0.06047814     -0.44474069
C      -0.45158113     -0.92302135     -0.81474811
N       0.79316050     -0.25561140     -0.60207882
C       1.91382619     -0.65048123     -1.28300184
O       1.90840451     -1.42897897     -2.22727352
C       3.15778838     -0.04059639     -0.74772375
C       4.34911236     -0.35485724     -1.27196071
H      -3.07096801      0.91318189      3.14019867
H      -4.37610889      1.98488724      2.36834325
H      -3.52472782      1.44080634      0.13768781
H      -2.00245906      0.43705363     -1.18612626
H      -0.57275039     -1.19579272     -1.86757843
H      -0.46529236     -1.83228220     -0.20467717
H       0.89032339      0.19811156      0.29485258
H       3.08129067      0.66502548      0.06956374
H       5.26138824      0.08798935     -0.88779053
H       4.43917772     -1.06001972     -2.09430357
