46
Cc1ccccc1COC1CC2(C(C)C)CCC1(C)O2
C       4.07323778     -2.74750051     -0.59411353
C       4.18439527     -1.42015402      0.10658865
C       5.40471525     -1.07199112      0.70962868
C       5.55452567      0.14770821      1.36737825
C       4.48746818      1.03595962      1.43008231
C       3.27146640      0.70725577      0.83033390
C       3.10104643     -0.51281921      0.15210396
C       1.76973498     -0.86677379     -0.48100971
O       0.89879179      0.26448497     -0.55160396
C      -0.38903816     -0.06486755     -1.05358522
C      -1.29052191     -0.73234382     -0.00624486
C      -2.51498446      0.20657739      0.02666992
C      -3.82045475     -0.47793420      0.45708364
C      -5.05654191      0.40149330      0.23754881
C      -3.77242298     -0.95528356      1.90951896
C      -2.13018300      1.50047186      0.76518173
C      -1.23243578      2.20111314     -0.25496350
C      -1.21059815      1.18998070     -1.40642877
C      -0.87860393      1.79508057     -2.75261641
O      -2.56033568      0.66300936     -1.35233152
H       3.20491287     -3.30419777     -0.22769239
H       3.98289899     -2.59737375     -1.67445880
H       4.95542149     -3.37147481     -0.41504246
H       6.25126136     -1.75437894      0.67208332
H       6.50343587      0.40310509      1.83102727
H       4.59840169      1.98697924      1.94386167
H       2.45072093      1.41917500      0.89323124
H       1.93815119     -1.22685571     -1.50212841
H       1.30184768     -1.65730271      0.11623368
H      -0.30087258     -0.71528947     -1.93419361
H      -1.57693203     -1.72642346     -0.36964257
H      -0.82104412     -0.84793725      0.97575782
H      -3.96167722     -1.35890020     -0.18392062
H      -5.97005595     -0.16827194      0.44138383
H      -5.11517179      0.75430595     -0.79694814
H      -5.06132322      1.27323708      0.89879519
H      -2.94340500     -1.65117446      2.07159817
H      -4.69681409     -1.48028581      2.17390541
H      -3.65473396     -0.11684759      2.60385487
H      -1.61799999      1.31077389      1.71383673
H      -2.99532239      2.13779620      0.97166157
H      -1.70639224      3.14070759     -0.56324103
H      -0.24135221      2.43978631      0.14137700
H      -1.57264680      2.60652293     -2.99742588
H      -0.98250441      1.05153837     -3.55034753
H       0.14193489      2.18931913     -2.77278769
