29
Oc1ccc(/C=C/c2cc(O)cc(O)c2)cc1
O       6.15757072      0.10937490     -0.15213099
C       4.79616490      0.17264400     -0.12962173
C       4.05836566     -0.43434968      0.88041833
C       2.66305290     -0.34265744      0.86279642
C       2.00393897      0.34461643     -0.16685062
C       0.54177508      0.49029844     -0.20077304
C      -0.31345416     -0.48636845      0.14326729
C      -1.77601779     -0.34587227      0.09361261
C      -2.54696588     -1.44131581     -0.31720874
C      -3.93639278     -1.34909033     -0.34691698
O      -4.63663087     -2.44338787     -0.76379417
C      -4.58298925     -0.18115919      0.03797780
C      -3.81919465      0.89974460      0.46163551
O      -4.48191115      2.02954023      0.84552345
C      -2.42680591      0.82878527      0.49834237
C       2.76938843      0.96137464     -1.16562237
C       4.16326457      0.87062866     -1.14993233
H       6.45595867     -0.41470243      0.60903265
H       4.54384007     -0.97423819      1.68695553
H       2.09765124     -0.80518303      1.66828658
H       0.17684138      1.44768460     -0.56462132
H       0.05114957     -1.46482976      0.44763509
H      -2.07307910     -2.36991448     -0.62584556
H      -5.58433304     -2.22979241     -0.73999789
H      -5.66402734     -0.09638765      0.02081453
H      -3.82958653      2.69541198      1.11977430
H      -1.84617760      1.67584262      0.85050719
H       2.28759634      1.50988277     -1.97175943
H       4.75100754      1.34341987     -1.93150447
