26
ClC1=C(Cl)C2(Cl)C3C4C=CC(C4)C3C1(Cl)C2(Cl)Cl
Cl     -3.16709457     -1.56204906      2.05189286
C      -2.30477505     -0.81237876      0.80298528
C      -2.53128280      0.38826394      0.24199260
Cl     -3.74582753      1.50561730      0.61852578
C      -1.40096527      0.63920892     -0.76314520
Cl     -1.68847798      1.86650567     -1.97308957
C      -0.19803350      0.93698892      0.18876182
C       1.22389799      1.40611915     -0.19271749
C       1.89126012      0.54125062     -1.21468498
C       2.11755886     -0.65818773     -0.65424422
C       1.60464102     -0.61198431      0.75023784
C       1.99862853      0.85831037      1.02996095
C       0.06862602     -0.47643725      0.84917813
C      -1.02178411     -1.37066073      0.17595589
Cl     -0.75352904     -3.08915702      0.34240036
C      -1.28107848     -0.83499441     -1.26978222
Cl     -2.84617096     -1.48426131     -2.02742240
Cl     -0.12185322     -1.21852759     -2.55868162
H      -0.53426586      1.63584242      0.97291251
H       1.34148511      2.47909759     -0.35032565
H       2.14391876      0.83517510     -2.22452131
H       2.58631605     -1.50963744     -1.12889643
H       2.06058963     -1.33248482      1.43063438
H       1.62543013      1.23624429      1.98950858
H       3.08126953      1.04117401      0.98419179
H      -0.14848338     -0.40903788      1.92837233
