26
CCCCC(CC)C(=O)[O-].[Mo]
C       3.70721425      0.36460678      0.11215857
C       2.50896377     -0.54708149      0.22940007
C       1.22886580      0.14775696     -0.20148281
C       0.12481919     -0.85675788     -0.03878038
C      -1.22570345     -0.33470216     -0.42309725
C      -1.64882465      0.85968061      0.39434058
C      -3.01984610      1.29911497     -0.07834737
C      -2.19574756     -1.44182636     -0.25119797
O      -1.96056945     -2.46398623      0.43414706
O      -3.42150148     -1.34026790     -0.87929193
Mo      0.00000000      0.00000000      0.00000000
H       4.54694883     -0.13383200      0.63782540
H       3.92736841      0.46550159     -0.98237665
H       3.42204108      1.33099471      0.56669916
H       2.70739262     -1.43423980     -0.40561633
H       2.38190137     -0.93926094      1.27007201
H       1.09516197      1.05033199      0.42209643
H       1.30825746      0.41329099     -1.27274551
H       0.35410114     -1.70482075     -0.72564660
H       0.13393294     -1.28367905      0.98118219
H      -1.22182677     -0.06837332     -1.49927709
H      -0.97535123      1.70835381      0.28642090
H      -1.74470840      0.61377064      1.47104182
H      -2.99242164      1.27680033     -1.20003006
H      -3.82908010      0.64478484      0.28833865
H      -3.21138798      2.37383966      0.18749710
