18
O=[N+]([O-])c1ccccc1CO
O       1.40815930      2.41774480      0.43490141
N       0.40433792      1.98266683      1.01597937
O      -0.05927793      2.43524202      2.07160319
C      -0.29785671      0.85743287      0.40364572
C      -1.70004506      0.93071771      0.35203195
C      -2.42067349     -0.10086754     -0.24415096
C      -1.74550712     -1.19240378     -0.78511333
C      -0.34937584     -1.26250389     -0.72518823
C       0.40876216     -0.24642334     -0.11634289
C       1.91546767     -0.34051622     -0.06457758
O       2.36001282     -1.67993914     -0.25359267
H      -2.23241909      1.78454598      0.76668918
H      -3.50611162     -0.05455396     -0.29080573
H      -2.30471716     -1.99876408     -1.25515940
H       0.14764494     -2.13181449     -1.15535660
H       2.35224552      0.27679554     -0.85588025
H       2.28797049     -0.02061561      0.91342704
H       3.33138319     -1.65674371     -0.21211020
