19
CCNC(C)C(=O)O
C       1.91318783      0.36503901     -1.50883887
C       0.71415694     -0.34221947     -0.89586773
N       0.18409529      0.46025861      0.21235024
C      -0.97845513     -0.22127433      0.86222304
C      -0.52655853     -1.19145096      1.94770308
C      -1.88175480      0.86812462      1.47246388
O      -2.78951484      0.67487282      2.26538032
O      -1.56055057      2.10045969      0.99504729
H       2.30763287     -0.21919095     -2.34644469
H       2.71798542      0.48973730     -0.77645200
H       1.63774969      1.35486973     -1.88841302
H      -0.05317167     -0.47134866     -1.66734720
H       1.02307323     -1.33430771     -0.54963940
H       0.92507812      0.57119347      0.91299480
H      -1.58935365     -0.73149725      0.10776748
H       0.11413007     -1.98017300      1.54123013
H       0.02570109     -0.67523523      2.74130777
H      -1.39026117     -1.67536902      2.41702629
H      -0.79317019      1.95751131      0.38597962
