24
CC(C)CC(NC=O)C(=O)O
C      -1.98976599      0.02807909     -0.98506098
C      -1.39654392     -0.38072987      0.36380066
C      -2.44787868     -0.20913621      1.46365509
C      -0.13350440      0.42898296      0.72060118
C       1.02857120      0.27107473     -0.26749251
N       1.48940248     -1.11574477     -0.32892704
C       2.01195729     -1.62887534     -1.48768619
O       2.00224160     -1.07700247     -2.57749627
C       2.20248572      1.13588820      0.19663179
O       3.16284049      0.76123591      0.85448963
O       2.07450499      2.43304027     -0.14824486
H      -2.92598124     -0.50774216     -1.17583970
H      -2.20316913      1.10184610     -1.01592476
H      -1.30932440     -0.20920773     -1.80829866
H      -1.13899052     -1.44596015      0.31660280
H      -3.33841399     -0.80909573      1.24803919
H      -2.05441954     -0.53472481      2.43244389
H      -2.75863362      0.83704489      1.55741487
H       0.20593901      0.12883588      1.72186171
H      -0.39703924      1.49233145      0.79968152
H       0.75116335      0.60297093     -1.27345777
H       1.81743449     -1.53123089      0.53538443
H       2.45491921     -2.62684636     -1.33187873
H       2.89220485      2.85496608      0.18970070
