36
COCC(C)OC(=O)Oc1ccc(NC(C)=O)cc1
C       4.75425060      1.99591716     -1.64587538
O       4.53846058      1.05708555     -0.60074819
C       4.02917679     -0.18318033     -1.10072002
C       3.77099595     -1.16228104      0.05848520
C       5.02953380     -1.39856915      0.88803087
O       2.76913472     -0.64819528      0.95957251
C       1.48597038     -0.71853047      0.51988159
O       1.13312326     -1.20826559     -0.54449993
O       0.67442564     -0.15201745      1.48733861
C      -0.67341748     -0.13908279      1.13173330
C      -1.46133999     -1.26438558      1.35099744
C      -2.81940773     -1.21709454      1.02754350
C      -3.39265598     -0.04762602      0.50357433
N      -4.76990742     -0.08860851      0.20249814
C      -5.55305433      0.93291573     -0.30403996
C      -6.98768862      0.50786489     -0.49768075
O      -5.19979432      2.07765102     -0.56254482
C      -2.58454551      1.07721169      0.31210849
C      -1.22401570      1.03663044      0.63212742
H       5.48415007      1.60922808     -2.36352221
H       3.81268225      2.22783256     -2.15281330
H       5.14962686      2.91548711     -1.20627187
H       4.76057308     -0.61737109     -1.79241066
H       3.10286632      0.01641397     -1.64938826
H       3.43908919     -2.12852680     -0.34214344
H       4.82808882     -2.12915029      1.67928876
H       5.35723021     -0.48166982      1.38979169
H       5.84892526     -1.77542755      0.26854045
H      -1.02824365     -2.17048731      1.76320860
H      -3.42138637     -2.10653757      1.19349781
H      -5.23474018     -0.96884541      0.38465700
H      -7.45934155      1.15156216     -1.24582880
H      -7.04520857     -0.52437567     -0.85495909
H      -7.52371823      0.59984325      0.45052335
H      -2.98280200      2.00582918     -0.08458432
H      -0.60703614      1.91875547      0.48791642
