35
CC(C)(c1ccc(OC#N)cc1)c1ccc(OC#N)cc1
C      -0.30225460     -0.01896588      2.69876171
C      -0.08062320     -0.63610194      1.29264349
C       0.02502456     -2.16832015      1.51239801
C       1.21456049      0.00353130      0.73434136
C       2.41400128     -0.71008185      0.58028222
C       3.56833906     -0.09505779      0.07514617
C       3.54875408      1.25241772     -0.29053301
O       4.60970194      1.96799541     -0.78823202
C       5.68261299      1.26175342     -1.12958450
N       6.62442761      0.65259314     -1.42881515
C       2.36801511      1.97851302     -0.13367803
C       1.21820894      1.36431436      0.37052260
C      -1.26671921     -0.41506202      0.32174145
C      -1.14840556     -0.81360833     -1.02409303
C      -2.19762908     -0.63423111     -1.92988889
C      -3.39645846     -0.05084793     -1.51948167
O      -4.35205112      0.06480305     -2.49868221
C      -5.42276897      0.78840242     -2.18819271
N      -6.36204715      1.41761907     -1.92461627
C      -3.53721823      0.34059851     -0.18653311
C      -2.48364913      0.16057885      0.72093483
H      -1.15517356     -0.47853297      3.21244866
H      -0.48658179      1.06099174      2.65500296
H       0.57650868     -0.16941779      3.33862099
H       0.78801657     -2.41826612      2.25933613
H      -0.92517322     -2.58147599      1.87393120
H       0.27825752     -2.70460749      0.59018969
H       2.48589677     -1.76055900      0.85083170
H       4.46681818     -0.70166813     -0.01284070
H       2.33291961      3.03080207     -0.40672845
H       0.31357893      1.96228793      0.47175618
H      -0.22533989     -1.26614062     -1.38373204
H      -2.06940747     -0.95178906     -2.96227292
H      -4.45613458      0.78597427      0.18792019
H      -2.64800709      0.48155792      1.74652120
