45
COc1ncc(C)cc1-c1cccc2c(N)c(C(=O)NC3CC3)nnc12
C      -4.26702568     -2.12938946      2.30529869
O      -3.50681302     -1.73184636      1.16993705
C      -3.53915986     -0.36720424      0.93800974
N      -4.32229798      0.40712608      1.72690690
C      -4.32498143      1.73316551      1.47214692
C      -3.59833605      2.33393164      0.45306581
C      -3.61940551      3.81584222      0.25522637
C      -2.79775551      1.50747811     -0.33926182
C      -2.75648583      0.12286078     -0.11431459
C      -1.92179768     -0.74978073     -0.96100328
C      -2.55439440     -1.58009360     -1.90441942
C      -1.80955326     -2.40674872     -2.73091628
C      -0.42356746     -2.42026805     -2.61311642
C       0.24912710     -1.61367498     -1.66472446
C       1.66170999     -1.62639575     -1.51239472
N       2.47302475     -2.40502787     -2.38088429
C       2.21242809     -0.71356883     -0.60529710
C       3.68668372     -0.60903937     -0.35947972
O       4.48143162     -1.39089747     -0.87671313
N       4.06090261      0.41048442      0.50016929
C       5.41517710      0.66064595      0.86486532
C       6.20648754      1.73024390      0.16541008
C       5.79204100      1.92047881      1.59473488
N       1.45512197      0.10482792      0.15766143
N       0.09441321      0.06204782      0.03938605
C      -0.51809071     -0.75434170     -0.84135580
H      -3.89009467     -1.66112941      3.22125245
H      -5.33263614     -1.91878510      2.16315191
H      -4.15578247     -3.21233050      2.41709970
H      -4.95186969      2.32044452      2.13837369
H      -3.46901747      4.07089999     -0.79906763
H      -4.58422749      4.23726609      0.55649400
H      -2.82857953      4.28503463      0.84851564
H      -2.19469048      1.94151288     -1.13471107
H      -3.63968915     -1.57578365     -1.99372661
H      -2.30430887     -3.03826946     -3.46456135
H       0.13344527     -3.06755580     -3.28659374
H       3.45464750     -2.42947270     -2.07028933
H       2.12089842     -3.34142423     -2.54886504
H       3.31779682      0.97086653      0.91020228
H       5.95478949     -0.24224326      1.14471829
H       7.24977313      1.52461156     -0.04387639
H       5.71014519      2.32113015     -0.59521901
H       5.02277097      2.65395665      1.80390577
H       6.55774484      1.85041510      2.35872265
