35
CCCN1Cn2c(nc3ccccc3c2=O)C1C
C       4.44216352      1.70217902     -0.91958033
C       3.72771380      0.70302571     -0.02121624
C       2.46254216      0.15577841     -0.69519794
N       1.79864871     -0.85837753      0.14415554
C       0.77133868     -1.57117600     -0.64576549
N      -0.46459819     -0.92552779     -0.35027573
C      -0.36775080     -0.14783141      0.77409994
N      -1.33863292      0.52076581      1.29856460
C      -2.58473307      0.42133700      0.64672988
C      -3.66663456      1.13936113      1.16039544
C      -4.92327924      1.06725641      0.55128895
C      -5.11109752      0.27279833     -0.58065158
C      -4.04261000     -0.45158476     -1.10747210
C      -2.78820539     -0.37270470     -0.49304139
C      -1.63528704     -1.13024521     -1.03046072
O      -1.75123217     -1.87340248     -1.99823596
C       1.05189275     -0.22534516      1.27142558
C       1.13190529     -1.11781216      2.50483710
H       4.74224545      1.23709177     -1.86401107
H       5.34337887      2.07874989     -0.42564308
H       3.79640012      2.55654676     -1.14621090
H       4.41232839     -0.12231651      0.20923237
H       3.48866587      1.19663591      0.92662531
H       1.77926778      0.97439753     -0.95634385
H       2.77829328     -0.30981535     -1.63813684
H       0.95652595     -1.59576972     -1.72573816
H       0.69857747     -2.60998969     -0.30215978
H      -3.52722094      1.75829109      2.04324233
H      -5.75626929      1.63204474      0.96343794
H      -6.09000073      0.21805656     -1.05120219
H      -4.18563629     -1.07221709     -1.98896489
H       1.40464164      0.77998470      1.52245380
H       0.56603219     -0.67732291      3.33324694
H       2.16989535     -1.23976830      2.83215724
H       0.71073088     -2.11309401      2.32170872
