27
O=S(=O)(c1ccc(O)cc1)c1ccc(O)cc1
O      -0.15997743      0.43057156      2.77121134
S      -0.10677293      1.06071577      1.46450453
O      -0.13569749      2.50674473      1.33976849
C       1.37630262      0.47208055      0.67893763
C       2.24918620      1.37560941      0.06370373
C       3.40842105      0.90003739     -0.55218349
C       3.67976894     -0.46645088     -0.53980553
O       4.80007955     -0.97193028     -1.12940436
C       2.81638618     -1.36552308      0.08022943
C       1.65732357     -0.89786886      0.69871011
C      -1.46836273      0.44249372      0.50169941
C      -1.66070265      0.93137038     -0.79450120
C      -2.72390380      0.44670357     -1.55564859
C      -3.58170292     -0.50775933     -1.01584603
O      -4.60666569     -0.94950434     -1.79849817
C      -3.39944364     -0.98913230      0.27880928
C      -2.33634141     -0.50969606      1.04644556
H       2.03892998      2.44311486      0.06189053
H       4.08386559      1.60371561     -1.02943766
H       5.32105585     -0.23817038     -1.49533037
H       3.05160226     -2.42666205      0.08571550
H       0.99168593     -1.59987196      1.19511357
H      -1.00052518      1.68751704     -1.21247965
H      -2.88939306      0.81508222     -2.56474972
H      -5.13743243     -1.58599830     -1.29165909
H      -4.07127654     -1.72865569      0.70414024
H      -2.19640984     -0.87853330      2.06042579
