19
O=C(O)c1ccccc1CO
O       1.09157044      2.25771910     -0.83681189
C      -0.03548707      1.81752066     -0.69805596
O      -1.11130034      2.58822899     -0.94054767
C      -0.40159009      0.44474364     -0.25054764
C      -1.69129193     -0.04507783     -0.52348241
C      -2.05558594     -1.33876938     -0.14981182
C      -1.13518243     -2.15812872      0.49417700
C       0.14719507     -1.68329316      0.77255195
C       0.53304226     -0.37733724      0.41510315
C       1.92385524      0.08239830      0.76982280
O       2.72287219      0.17646435     -0.39803091
H      -0.73579925      3.45033222     -1.21680042
H      -2.42157245      0.57409943     -1.04011940
H      -3.05419401     -1.70794694     -0.36976078
H      -1.41254919     -3.17041358      0.77849969
H       0.85333780     -2.34497497      1.27207329
H       2.40994205     -0.63158016      1.44350599
H       1.90644799      1.04252266      1.29761256
H       2.46628966      1.02349262     -0.81937751
