15
O=P1([O-])OP(=O)([O-])OP(=O)([O-])O1.[Na+].[Na+].[Na+]
O      -1.03196713     -1.92076123     -1.83955894
P      -0.49877225     -1.50699289     -0.47335742
O      -0.37836678     -2.62863938      0.54553596
O      -1.43011825     -0.35675779      0.13125831
P      -1.11360305      1.20838879      0.19299633
O      -2.03046892      1.82434115      1.24766804
O      -1.15862204      1.84213030     -1.18176778
O       0.36931399      1.19657483      0.78839135
P       1.60129358      0.30585480      0.29356727
O       2.54722847      1.16891786     -0.53247002
O       2.22820454     -0.37855612      1.49743464
O       0.89587784     -0.75450032     -0.66969774
Na      0.00000000      0.00000000      0.00000000
Na      0.00000000      0.00000000      0.00000000
Na      0.00000000      0.00000000      0.00000000
