22
O=P([O-])([O-])[O-].O=P([O-])([O-])[O-].O=P([O-])([O-])[O-].[Ca+2].[Ca+2].[Ca+2].[Ca+2].[Ca+2].[OH-]
O      -0.08783857      1.52409808     -0.18269428
P       0.00000003      0.00000004     -0.00000005
O       1.37428247     -0.49529219     -0.47958370
O      -1.10589773     -0.67954401     -0.82412248
O      -0.18054621     -0.34926193      1.48640051
O       0.05006407      0.08303123      1.53445967
P      -0.00000007     -0.00000001     -0.00000005
O       1.34568434     -0.52258232     -0.52915870
O      -1.12479937     -0.95822345     -0.42497307
O      -0.27094898      1.39777455     -0.58032786
O       0.01111110      1.46324874     -0.47196093
P      -0.00000008     -0.00000016     -0.00000063
O       1.44104459     -0.53387496      0.04832852
O      -0.82817058     -0.84807414     -0.97922066
O      -0.62398503     -0.08129948      1.40285369
Ca      0.00000000      0.00000000      0.00000000
Ca      0.00000000      0.00000000      0.00000000
Ca      0.00000000      0.00000000      0.00000000
Ca      0.00000000      0.00000000      0.00000000
Ca      0.00000000      0.00000000      0.00000000
O       0.48890387      0.00000000      0.00000000
H      -0.48890387      0.00000000      0.00000000
