32
NC(=O)OCC1COC2(CCCCC2)O1
N       5.36953700      0.79869340     -0.68629076
C       4.30365238      0.41932136      0.04997649
O       3.96182789      0.97380286      1.08040811
O       3.69505849     -0.63505958     -0.53241797
C       2.56080364     -1.17209339      0.16656478
C       1.25748761     -0.56811329     -0.33719736
C       1.00193547      0.85242720      0.10412231
O      -0.40805967      0.99495181     -0.08668461
C      -0.94579539     -0.31396856      0.17077583
C      -1.92591706     -0.67679169     -0.94917646
C      -3.17514887      0.20212103     -0.92874584
C      -3.85427719      0.18038380      0.43798540
C      -2.88635332      0.55382377      1.55751836
C      -1.63886900     -0.32717770      1.53699110
O       0.12639542     -1.27248160      0.19166567
H       5.96590419      1.53346962     -0.33636293
H       5.65033712      0.24793170     -1.48266139
H       2.55447247     -2.25148163     -0.02556413
H       2.66211136     -1.07391877      1.25497156
H       1.20848290     -0.63222476     -1.43177015
H       1.53919549      1.59742712     -0.48808359
H       1.21340350      1.00771997      1.16762056
H      -1.43466892     -0.57374902     -1.92469418
H      -2.21395140     -1.73218127     -0.86080395
H      -2.90573620      1.23355972     -1.18668751
H      -3.87905760     -0.14246358     -1.69473757
H      -4.70357493      0.87282833      0.43866556
H      -4.25913238     -0.82158960      0.62672132
H      -2.59711610      1.60683232      1.45515543
H      -3.38920644      0.45584539      2.52627579
H      -0.94537333      0.01905477      2.31326129
H      -1.90836711     -1.35689974      1.80496455
