29
CCOc1ccc(NC(C)=O)c(C)c1
C      -5.22744803     -0.05739231      0.34219031
C      -3.78049611     -0.17756951      0.78587059
O      -2.95055521      0.13700239     -0.33118198
C      -1.59905568      0.08669702     -0.13356865
C      -0.95345638     -0.24374618      1.05135688
C       0.44641768     -0.25574056      1.11309071
C       1.22676295      0.06165043     -0.00398658
N       2.64126605      0.05618556      0.03100130
C       3.46615503     -0.22980092      1.10471724
C       4.92625594     -0.12525781      0.73824053
O       3.12859857     -0.51646042      2.24727265
C       0.57640157      0.39712803     -1.20992147
C       1.32723120      0.75222925     -2.46505065
C      -0.83095227      0.40417750     -1.25447934
H      -5.43340588     -0.73885431     -0.48990095
H      -5.90840475     -0.28955107      1.16581841
H      -5.43796710      0.95580636     -0.01599255
H      -3.59832517      0.52676938      1.60578335
H      -3.59366067     -1.20413540      1.12170049
H      -1.49999038     -0.49936437      1.95288291
H       0.89621084     -0.52261461      2.06440128
H       3.10787795      0.29842139     -0.83179845
H       5.11128309     -0.56315037     -0.24693243
H       5.52603888     -0.67262919      1.47115958
H       5.22633618      0.92590506      0.73791390
H       1.94985228      1.63705994     -2.29780633
H       0.64788085      0.98245795     -3.29281826
H       1.95569320     -0.08634553     -2.78187783
H      -1.34654463      0.66140749     -2.17808465
