28
Cn1c(=O)c2c(n(C)c1=O)n(C)c(=O)n2C
C       2.60627195     -2.56840041     -0.26689526
N       1.63670996     -1.49358470     -0.16378627
C       0.29200789     -1.82734777     -0.07916452
O      -0.14538113     -2.97506284     -0.08489106
C      -0.60691519     -0.67321954      0.02147367
C      -0.13535330      0.58028987      0.02816219
N       1.21025326      0.84749782     -0.05865428
C       1.72184864      2.20675835     -0.05142113
C       2.14782548     -0.19096575     -0.15833104
O       3.35993554      0.02001668     -0.23748725
N      -1.22169253      1.43504911      0.13250326
C      -1.26063888      2.86805235      0.18111588
C      -2.41414332      0.65936433      0.19219445
O      -3.55991973      1.06407420      0.28634715
N      -1.97762435     -0.67364727      0.11860467
C      -2.83640843     -1.82594176      0.14259649
H       3.17577716     -2.44560248     -1.19406682
H       2.14020211     -3.55681873     -0.26548127
H       3.30129195     -2.50225295      0.57668888
H       2.81228059      2.24302683     -0.12754088
H       1.31905736      2.75125192     -0.90936196
H       1.44640944      2.69375752      0.88758975
H      -0.70977191      3.22156263      1.05575949
H      -0.83690742      3.27896296     -0.73813894
H      -2.29171293      3.22427800      0.26558756
H      -2.70882231     -2.39289088     -0.78392974
H      -2.58211243     -2.45010049      1.00394416
H      -3.88246747     -1.51810699      0.22658281
