22
Clc1ccccc1-c1cc(Cl)c(Cl)c(Cl)c1
Cl      0.87183104     -1.52820960     -2.26424729
C       1.58292379     -0.62519281     -0.96990690
C       2.97959184     -0.56301800     -0.91619248
C       3.61096187      0.13889298      0.10943210
C       2.84856583      0.77824652      1.08295834
C       1.45367592      0.71738672      1.03129479
C       0.79440572      0.01693303      0.00426692
C      -0.67430405     -0.01667252     -0.00943512
C      -1.37848424     -0.87018771      0.85007649
C      -2.77864419     -0.90496427      0.84011362
Cl     -3.54492623     -1.99652238      1.94359799
C      -3.50483002     -0.08148223     -0.03128962
Cl     -5.23964010     -0.12012299     -0.04306464
C      -2.80413728      0.77608318     -0.89046942
Cl     -3.60306028      1.83625312     -2.00125866
C      -1.40402648      0.80748552     -0.87666398
H       3.58116977     -1.06276803     -1.67164724
H       4.69665565      0.18554602      0.14900978
H       3.33876953      1.32656858      1.88434850
H       0.87763120      1.22805748      1.80168401
H      -0.82936186     -1.52092496      1.52972512
H      -0.87476744      1.47861233     -1.55233230
