40
CCCCCCNCCCCCC
C       5.90369311      0.53355784     -0.59657212
C       4.57671439      1.14689053     -0.17755097
C       3.80151090      0.29470850      0.83005386
C       3.40971772     -1.10581588      0.34831099
C       2.56985301     -1.15582526     -0.93389098
C       1.26071863     -0.35844639     -0.90711987
N       0.34842384     -0.85106949      0.12475763
C      -0.91580246     -0.11198941      0.10837486
C      -1.83342571     -0.64198169      1.21337898
C      -3.15041731      0.13202415      1.33105050
C      -4.06117422     -0.02605782      0.11151427
C      -5.40596872      0.66825126      0.33176909
C      -6.31497454      0.51860920     -0.87779014
H       6.52755044      0.31320617      0.27537495
H       6.45298884      1.22973120     -1.23853577
H       5.75754369     -0.39199192     -1.16102124
H       3.96633870      1.34003881     -1.06625733
H       4.77474881      2.12412299      0.27935311
H       2.90060464      0.84174340      1.13206979
H       4.40564813      0.18750199      1.73997931
H       4.31686858     -1.70162318      0.19033356
H       2.86807770     -1.61044161      1.15763927
H       2.34220749     -2.20730947     -1.15321228
H       3.17512181     -0.80074586     -1.77660364
H       0.78653372     -0.45924311     -1.89106609
H       1.47235186      0.70614111     -0.75728142
H       0.78242389     -0.75533074      1.04202732
H      -0.73223691      0.95741124      0.26632558
H      -1.39717438     -0.23733100     -0.86723220
H      -1.31506467     -0.57424200      2.17876047
H      -2.04767614     -1.70493950      1.04464553
H      -2.93842898      1.19478283      1.50025150
H      -3.67955846     -0.22963083      2.22157338
H      -4.22680674     -1.09151525     -0.08858578
H      -3.57984410      0.40072525     -0.77541707
H      -5.90522585      0.24392075      1.21062137
H      -5.24611967      1.73411391      0.53206633
H      -6.52012134     -0.53629159     -1.08618027
H      -5.85923454      0.96281842     -1.76847186
H      -7.27038513      1.02152243     -0.69841627
