8
FC(F)CCl
F      -1.37509656      0.52037567     -0.93700233
C      -0.74821182      0.04775800      0.16981524
F      -1.31107774     -1.16039985      0.43885927
C       0.72840598     -0.14357134     -0.10361644
Cl      1.57646328      1.41711080     -0.23820244
H      -0.94881652      0.71800665      1.01044408
H       0.87866492     -0.68506487     -1.04194307
H       1.19966847     -0.71421505      0.70164569
