17
O=[N+]([O-])c1cc(O)cc([N+](=O)[O-])c1
O      -3.44634452     -0.55965155     -0.93577840
N      -2.43155212     -1.21795513     -0.67177789
O      -2.37321626     -2.45494740     -0.67342099
C      -1.20707366     -0.48220022     -0.33176753
C      -1.22475444      0.91803054     -0.31687391
C      -0.06145448      1.61034083      0.00605733
O      -0.12305090      2.97133665      0.00857788
C       1.11690293      0.93805083      0.31388842
C       1.12263357     -0.46494410      0.29573653
N       2.36198856     -1.18393646      0.61933526
O       2.33164583     -2.42104316      0.59382676
O       3.36121965     -0.50706561      0.89784883
C      -0.03491834     -1.18801242     -0.02607798
H      -2.12756301      1.47899041     -0.55207782
H       0.74289574      3.34515099      0.24696990
H       2.01666227      1.49504433      0.56396608
H      -0.02402082     -2.27718852     -0.03843247
