17
C=CCCCN=C=S
C      -3.09033085      0.71976632     -0.04777220
C      -2.10058833     -0.16517067     -0.22056430
C      -0.64208402      0.19482061     -0.24432622
C       0.11261232     -0.48063485      0.90379213
C       1.59040484     -0.08972618      0.93681429
N       2.26514313     -0.64349073     -0.24584901
C       3.41027611     -0.39342130     -0.30868664
S       5.16397565     -0.00938604     -0.40602860
H      -4.12759177      0.39868207     -0.04718884
H      -2.89359646      1.77776536      0.09438540
H      -2.35019552     -1.21450114     -0.36663592
H      -0.51281210      1.28225975     -0.18140659
H      -0.22674123     -0.11974757     -1.20878206
H       0.02123316     -1.57118426      0.82005784
H      -0.34468154     -0.19296118      1.85900291
H       2.03902841     -0.49682663      1.85283922
H       1.68594820      1.00375643      0.97002268
