31
COP(=S)(NC(C)C)Oc1ccc(Cl)cc1Cl
C      -0.09188572     -2.43254365     -1.66428644
O       0.25804250     -1.35614606     -0.81728453
P      -0.07940843      0.15595963     -1.28932918
S       0.70754748      0.67925439     -2.98716751
N      -1.72000584      0.26909028     -1.23337399
C      -2.47367456     -0.06215001     -0.03065659
C      -2.68200586      1.16533996      0.85422292
C      -3.82382889     -0.63520845     -0.45990268
O       0.43435100      1.02686096     -0.01599932
C       1.67880374      0.84040269      0.52312525
C       2.77626940      1.47449012     -0.05901352
C       4.04720958      1.30549864      0.49345452
C       4.20986108      0.51913768      1.63380795
Cl      5.77796812      0.31622502      2.31184570
C       3.11271300     -0.09366768      2.23580237
C       1.84279832      0.07526871      1.68294893
Cl      0.49726280     -0.65896670      2.47524626
H      -0.07492074     -3.35468262     -1.07766731
H       0.63656926     -2.52153364     -2.47406629
H      -1.09510756     -2.30121121     -2.07794336
H      -2.05610502      1.14051198     -1.62952669
H      -1.95069513     -0.83518672      0.54150752
H      -1.73205974      1.57959643      1.20315459
H      -3.26941673      0.90326557      1.74107434
H      -3.21934952      1.95840059      0.32192097
H      -3.69127227     -1.52982074     -1.07888006
H      -4.41667304     -0.92360075      0.41497863
H      -4.40758764      0.09182701     -1.03611626
H       2.65569145      2.10398326     -0.93717729
H       4.90342030      1.79243292      0.03244648
H       3.24548865     -0.69282765      3.13237398
