34
O=C(OCCCc1ccccc1)c1ccccc1
O       1.84643877      1.48725195      1.53498063
C       2.03968601      0.56442901      0.75907980
O       1.08520573     -0.23315214      0.21811464
C      -0.26587258      0.04504866      0.62428127
C      -0.86921985      1.11784486     -0.27950082
C      -2.28040118      1.52992849      0.14176128
C      -3.29771621      0.42303110      0.01610454
C      -3.71755228     -0.01780382     -1.24636210
C      -4.65104788     -1.04891012     -1.36205750
C      -5.17434000     -1.64831833     -0.21820672
C      -4.76588001     -1.21632719      1.04205426
C      -3.83247679     -0.18514557      1.15978713
C       3.38961234      0.17024867      0.27131318
C       4.49660149      0.89991337      0.72691105
C       5.78374307      0.56949177      0.29810029
C       5.97248503     -0.49066615     -0.58736023
C       4.87705074     -1.22200604     -1.04558476
C       3.58753407     -0.89448751     -0.61887309
H      -0.81760064     -0.89552572      0.52669332
H      -0.30527611      0.33233963      1.68187264
H      -0.85608676      0.76404630     -1.31801629
H      -0.22653127      2.00671286     -0.26671057
H      -2.26076326      1.91014313      1.17091396
H      -2.61102064      2.37191491     -0.47990984
H      -3.32030843      0.44195626     -2.14858088
H      -4.97091833     -1.38344171     -2.34537862
H      -5.90185214     -2.45046936     -0.30879482
H      -5.17532646     -1.68193574      1.93471960
H      -3.52560847      0.13951277      2.15159860
H       4.35989786      1.72932529      1.41847186
H       6.63782544      1.13952633      0.65551630
H       6.97512681     -0.74760341     -0.92078757
H       5.02651005     -2.04872471     -1.73593488
H       2.74808190     -1.47814784     -0.98842485
