16
Nc1nc(CC(=O)O)cs1
N       2.30188009      1.91962912     -0.34364651
C       1.62803348      0.76002679     -0.34403502
N       0.32328168      0.69087510     -0.22393445
C      -0.09347022     -0.63754120     -0.26139309
C      -1.55427260     -0.92536637     -0.14565053
C      -2.20765397     -0.28894582      1.06137729
O      -3.16280669     -0.79599849      1.63791092
O      -1.72308855      0.92128187      1.42417752
C       0.92690624     -1.55584550     -0.41311038
S       2.43258058     -0.74551667     -0.51165726
H       3.22592974      1.92239545     -0.76001831
H       1.76107769      2.75103565     -0.55344365
H      -2.07181225     -0.56186034     -1.03982841
H      -1.70986354     -2.00833366     -0.07703016
H      -0.94214874      1.18788762      0.87887095
H       0.86542708     -2.63372353     -0.46995916
