25
O=C(O)CCCOc1ccc(Cl)cc1
O      -3.41861840      1.63007278      0.29670061
C      -3.68861486      0.46413114      0.53100981
O      -4.37124514      0.11704253      1.63582899
C      -3.28359220     -0.71666610     -0.30219141
C      -1.92866639     -1.26461012      0.12091579
C      -0.78138347     -0.29384418     -0.15945466
O       0.43749038     -0.95782614      0.17875924
C       1.59834083     -0.25894878     -0.00487351
C       2.76076522     -0.96607159      0.31827848
C       4.01771007     -0.37308925      0.17882431
C       4.11199601      0.93533553     -0.28599710
Cl      5.65587774      1.67341928     -0.46065280
C       2.96092291      1.65049469     -0.61021207
C       1.70283369      1.05358876     -0.46962044
H      -4.55379790      0.96668628      2.08959498
H      -3.28049623     -0.41257178     -1.35499115
H      -4.05343757     -1.49152999     -0.20882063
H      -1.93228031     -1.51930621      1.18832607
H      -1.73800524     -2.20536836     -0.41058878
H      -0.89473942      0.60512409      0.45665741
H      -0.77916121     -0.02628572     -1.22289678
H       2.68532591     -1.98827816      0.68175218
H       4.91106079     -0.93599439      0.43387093
H       3.03317640      2.67279543     -0.97209612
H       0.82853840      1.64170025     -0.72950060
