37
CN[C@H]1CC[C@@H](c2ccc(Cl)c(Cl)c2)c2ccccc21
C      -3.72277230     -1.81221305     -0.77726941
N      -2.87291445     -0.63375314     -0.81396004
C      -2.03143146     -0.47128351      0.38250863
C      -0.97244093     -1.58628000      0.46103719
C       0.07065866     -1.28040394      1.52933125
C       0.84414463      0.00996504      1.21300935
C       1.96334096     -0.24717245      0.20314505
C       3.21161626     -0.69619892      0.66403718
C       4.25314185     -0.95802134     -0.23013131
C       4.06417857     -0.78046939     -1.60230689
Cl      5.39439313     -1.12642768     -2.64891135
C       2.82698740     -0.33965253     -2.07942792
Cl      2.51412206     -0.10419029     -3.76281413
C       1.78566659     -0.07703488     -1.18098469
C      -0.08699394      1.15234991      0.83639234
C       0.40790214      2.47035068      0.89428203
C      -0.40093877      3.55537885      0.56369538
C      -1.71788901      3.34154831      0.17712431
C      -2.22199689      2.04244283      0.11506386
C      -1.41751900      0.92727447      0.42286379
H      -4.39730896     -1.79582391     -1.63921306
H      -3.14535985     -2.73963007     -0.83205946
H      -4.34542325     -1.82793228      0.12292738
H      -2.28185802     -0.65159058     -1.64378989
H      -2.66580091     -0.53483289      1.27797484
H      -1.45237204     -2.54142888      0.70623791
H      -0.48013299     -1.72729083     -0.50886223
H       0.75299938     -2.13223964      1.63723264
H      -0.44169159     -1.16786163      2.49452482
H       1.32749484      0.31435387      2.15378157
H       3.38287357     -0.84659120      1.72892858
H       5.21132608     -1.30272635      0.15185340
H       0.82908738      0.26702229     -1.57068676
H       1.43641469      2.65522595      1.19877150
H      -0.00423814      4.56582994      0.61163019
H      -2.35725124      4.18318337     -0.07511451
H      -3.26001442      1.89612386     -0.18082153
