31
Nc1nc2c(ncn2COC(CO)CO)c(=O)[nH]1
N      -4.21511848      0.70087357     -2.17238166
C      -3.55737903     -0.09156543     -1.28862423
N      -2.32904113      0.19301111     -0.94841088
C      -1.80613201     -0.68356352     -0.05748469
C      -2.40312063     -1.78999675      0.50380419
N      -1.56108359     -2.42711231      1.37894057
C      -0.45322793     -1.71173757      1.34302573
N      -0.55012848     -0.64980276      0.48015849
C       0.45735094      0.35881133      0.20207260
O       1.73365257     -0.11735525      0.63821948
C       2.70300888      0.93802824      0.80658514
C       3.08499843      1.58561321     -0.53421753
O       2.05355242      2.48393553     -0.94952234
C       3.93112927      0.28913707      1.45551481
O       4.46915142     -0.72371490      0.60682448
C      -3.76059287     -2.09585190      0.10906230
O      -4.42740886     -3.04996281      0.49754086
N      -4.26467527     -1.16868587     -0.79370312
H      -5.20225127      0.84073951     -2.00140320
H      -3.72323708      1.57515502     -2.33202280
H       0.44260723     -1.91647335      1.91534529
H       0.15692560      1.26247555      0.74288912
H       0.47048884      0.51736705     -0.88002818
H       2.28965245      1.68624526      1.49391550
H       3.20601027      0.83067421     -1.31772288
H       4.00605239      2.16904902     -0.43891249
H       2.33569979      2.85615611     -1.80468991
H       4.71466333      1.02776709      1.64960283
H       3.65981923     -0.18803540      2.40310133
H       3.72870519     -1.33567020      0.42670431
H      -5.19007163     -1.36551085     -1.13418311
