24
N[C+](N)N.O=C([O-])c1ccccc1
N      -1.11015442     -0.90878306     -0.08324372
C      -0.01846195     -0.01664337      0.02411673
N      -0.26935725      1.36034198      0.21117480
N       1.29227219     -0.53688474      0.09727919
O       3.08696328      0.71003071     -0.35811507
C       2.37067856     -0.32560813     -0.17731895
O       2.80146722     -1.51879510     -0.08231985
C       0.87161537     -0.11971481     -0.06519389
C       0.00619021     -1.20800700      0.13496238
C      -1.37441460     -1.01970156      0.23837531
C      -1.91211146      0.26262486      0.14301950
C      -1.07017327      1.35546094     -0.05552796
C       0.31009973      1.16456507     -0.15861934
H      -0.87524054     -1.79811302      0.34994711
H      -1.90999012     -0.54099368      0.42542152
H      -1.05351638      1.67139882     -0.35466127
H       0.53168721      1.93921185     -0.01420381
H       2.00125882      0.15382582     -0.12138789
H       1.41150244     -1.32336059     -0.53444268
H       0.42688099     -2.20969339      0.20938769
H      -2.02191186     -1.87690972      0.39294959
H      -2.98423517      0.40987930      0.22321073
H      -1.47947365      2.35781819     -0.13105784
H       0.96842465      2.01805062     -0.31375230
