17
O=P(O)(O)c1ccccc1
O       1.97674104     -2.30867797      0.08018150
P       1.65567227     -0.88846667      0.42272208
O       2.81096339      0.07531713     -0.14115796
O       1.87485409     -0.65195218      1.99674790
C       0.11568037     -0.17561189     -0.00908622
C      -0.85082790     -0.93010611     -0.68895444
C      -2.08045749     -0.36766125     -1.03603408
C      -2.35772166      0.95770171     -0.70657218
C      -1.40743078      1.72070248     -0.03091059
C      -0.17866796      1.15636769      0.31514646
H       3.68178250     -0.35957513     -0.13155753
H       2.59579966     -1.20328312      2.34863039
H      -0.64045819     -1.96628723     -0.94933280
H      -2.82115007     -0.96364387     -1.56310253
H      -3.31489110      1.39624705     -0.97649759
H      -1.62203653      2.75456822      0.22682497
H       0.56214837      1.75436113      0.84295262
