19
O=C1NCCN1CCO
O       0.73143263      1.47820115      1.28561646
C      -0.16891454      0.81988001      0.79552510
N      -1.50270094      1.18256954      0.75680448
C      -2.30286253      0.13811889      0.17978843
C      -1.27670036     -0.73182896     -0.53721983
N      -0.03905186     -0.39664914      0.13531960
C       1.24461172     -0.97095023     -0.24069146
C       1.98058827     -0.14683280     -1.30279816
O       2.64626700      0.98075487     -0.73955258
H      -1.83393571      1.96957238      1.29878008
H      -3.05867963      0.55582970     -0.48942085
H      -2.78933763     -0.40303169      0.99753522
H      -1.18542970     -0.44791715     -1.59109708
H      -1.49154315     -1.80039684     -0.45416321
H       1.05939665     -1.98827053     -0.60012060
H       1.85407992     -1.02218806      0.66854222
H       2.75133966     -0.76321986     -1.77545342
H       1.29921456      0.20718112     -2.08267179
H       2.08222563      1.33917760     -0.02032222
