29
CC1(C)[C@@H]2CC[C@@]1(C)[C@@H](O)C2
C      -0.77486180      1.41157041      1.48196073
C      -0.78587245      0.26829723      0.44755308
C      -1.96422708     -0.64762450      0.83618601
C      -0.81875990      0.74887161     -1.02798387
C      -0.68220970     -0.56051543     -1.83686575
C       0.27294612     -1.40001333     -0.97157052
C       0.57828526     -0.45212032      0.22274094
C       1.17183719     -1.18463294      1.41171482
C       1.48189856      0.70310035     -0.30500144
O       2.59794578      0.24937825     -1.05127511
C       0.51969970      1.50738332     -1.19885951
H       0.01688111      2.14942426      1.33846669
H      -0.65440284      1.01363598      2.49597839
H      -1.72308304      1.96096109      1.45100321
H      -1.84722561     -1.01320775      1.86275615
H      -2.90875990     -0.09335402      0.78661763
H      -2.08447270     -1.52871277      0.20265997
H      -1.69007874      1.34304128     -1.31332334
H      -0.27881025     -0.39299353     -2.84108026
H      -1.64785555     -1.06388427     -1.95201410
H       1.16790716     -1.69472932     -1.52874270
H      -0.21375345     -2.32636568     -0.64659712
H       0.49240928     -1.95899642      1.78231234
H       1.37847265     -0.49789302      2.23887900
H       2.11363249     -1.67394228      1.14192035
H       1.86574173      1.33042383      0.50671963
H       3.14679905     -0.29056235     -0.45794452
H       0.42517846      2.53544988     -0.83270621
H       0.84473847      1.55801045     -2.24350449
