27
ClC1=C(Cl)[C@]2(Cl)[C@@H]3[C@@H]4C[C@H]([C@@H]3[C@@]1(Cl)C2(Cl)Cl)[C@H]1O[C@@H]41
Cl      2.18628178     -2.89910490      0.24829155
C       1.81347624     -1.25455217      0.41108861
C       1.52885933     -0.58152716      1.53494522
Cl      1.45947644     -1.18048784      3.11813215
C       1.22083447      0.84551004      1.14573881
Cl      1.33110587      2.04200109      2.42471943
C      -0.12778552      0.92319325      0.35708168
C      -1.44598886      0.24340460      0.83091134
C      -1.28707853     -1.23275246      0.41228218
C      -0.96791734     -0.88705313     -1.05678999
C       0.20767941      0.12994904     -0.96754206
C       1.69890999     -0.28495687     -0.74197985
Cl      2.50967092     -0.74483016     -2.22883105
C       2.26792977      0.99158325     -0.01944340
Cl      3.99983069      0.87185827      0.49087682
Cl      2.14619639      2.52060268     -0.96593709
C      -2.19368261     -0.03723388     -1.43080425
O      -3.41074859     -0.25326401     -0.71212941
C      -2.51321034      0.71833033     -0.16913570
H      -0.34349963      1.97301071      0.11341896
H      -1.71371285      0.41506480      1.87439388
H      -0.53243359     -1.79920114      0.94260941
H      -2.21532473     -1.80693252      0.52105224
H      -0.80341813     -1.73742865     -1.71995752
H       0.14847997      0.80965366     -1.82924670
H      -2.20307706      0.44812656     -2.39304913
H      -2.76085350      1.76703660     -0.19069615
