21
NC(CCC(=O)O)C(=O)O.[Cl-].[H+]
N       0.82406117      1.74420538      1.64906255
C       0.47726262      0.86560079      0.52273541
C      -0.35244305     -0.24722350      1.10199503
C      -0.79544102     -1.24540215      0.06450110
C      -1.61830385     -0.55747191     -0.93912159
O      -2.64773664      0.11606590     -0.72783317
O      -1.21599160     -0.65697935     -2.29029453
C       1.75998616      0.39563189     -0.02711057
O       2.89644800      0.62079401      0.38917041
O       1.68653443     -0.41421928     -1.18047307
Cl      0.00000000      0.00000000      0.00000000
H       0.00000000      0.00000000      0.00000000
H      -0.05451356      2.02252496      2.09642948
H       1.35549961      1.15454143      2.31993673
H      -0.04674298      1.48003197     -0.21468977
H      -1.25403250      0.22677657      1.55983219
H       0.22449311     -0.75038590      1.89374264
H       0.00201563     -1.80381716     -0.42105278
H      -1.46757644     -2.00399893      0.56899691
H      -1.94003226     -0.78176072     -2.99511419
H       2.16651318     -0.16491399     -2.04110173
