33
NS(=O)(=O)c1cc(C2(O)NC(=O)c3ccccc32)ccc1Cl
N       5.26144136      0.47747122      0.10560670
S       4.00645881      1.02279953     -0.86592727
O       3.72082753      2.35388220     -0.37826764
O       4.38933388      0.78814996     -2.23696246
C       2.66705948     -0.04389740     -0.43824723
C       1.51320974      0.52896109      0.12717612
C       0.40032725     -0.25965936      0.47561362
C      -0.85330172      0.37125647      1.06255144
O      -0.58368599      1.63103191      1.63039585
N      -1.41774395     -0.40257062      2.12794639
C      -2.68846062     -0.85132365      1.84532816
O      -3.35648033     -1.61093654      2.51531924
C      -3.07935375     -0.25240599      0.56546240
C      -4.27599702     -0.35118937     -0.11711601
C      -4.37823215      0.33721277     -1.32684310
C      -3.29734940      1.09641565     -1.81452604
C      -2.09402632      1.17721065     -1.10395801
C      -1.99348572      0.48642540      0.09307008
C       0.47309690     -1.64027695      0.22223011
C       1.62024984     -2.20982194     -0.33990270
C       2.72319364     -1.41718436     -0.67287015
Cl      4.08599387     -2.23325233     -1.34902065
H       5.56700760      1.22502503      0.72941454
H       6.00718461      0.09108614     -0.47535679
H       1.47473912      1.60596514      0.29764729
H      -1.21925600      1.69786594      2.36149064
H      -0.87877613     -0.79270038      2.88712306
H      -5.09959107     -0.93749902      0.27647742
H      -5.30280437      0.29070127     -1.89871418
H      -3.40106647      1.62903780     -2.75833460
H      -1.26513435      1.76784563     -1.48336641
H      -0.36815213     -2.29221173      0.45615797
H       1.64277388     -3.28341415     -0.51959779
