34
CCSC(CCC(SCC)C(=O)O)C(=O)O
C       3.22759116      3.65671575      1.12738368
C       2.49294027      2.42768144      0.61907284
S       3.36369302      0.92340023      1.17514468
C       2.43490047     -0.38965272      0.27041464
C       0.91515844     -0.26952074      0.44285099
C       0.18695857     -1.57989163      0.08438193
C      -1.33944997     -1.55883105      0.29113760
S      -2.13582245     -0.37671324     -0.86755163
C      -3.87822981     -0.84781667     -0.62871672
C      -4.75606057     -0.09231211     -1.61190841
C      -1.70002438     -1.28018592      1.74480687
O      -2.29860205     -0.32564674      2.21163869
O      -1.27999451     -2.26662952      2.56892253
C       2.83284868     -0.40623802     -1.19900521
O       2.94906742      0.54070836     -1.95918896
O       3.02013786     -1.66117736     -1.66594099
H       2.69977465      4.56289944      0.80858554
H       3.28000175      3.67185451      2.22133718
H       4.24569964      3.71099505      0.72769982
H       2.44298024      2.46617377     -0.47138629
H       1.47472546      2.42678164      1.01999870
H       2.78494871     -1.32420308      0.72373666
H       0.53438115      0.54363914     -0.18528615
H       0.68381386     -0.01877149      1.48514526
H       0.61140252     -2.38739680      0.69747402
H       0.39929840     -1.85040280     -0.95758113
H      -1.73516480     -2.55029597      0.04073892
H      -3.98559574     -1.92409176     -0.79311739
H      -4.19219111     -0.61596806      0.39198184
H      -4.48311358     -0.31622851     -2.64885013
H      -5.80213233     -0.38673851     -1.47595769
H      -4.69396152      0.98983402     -1.45855025
H      -1.56551578     -1.96715308      3.45900610
H       3.26553632     -1.52481759     -2.60564343
