9
N#CCC(=O)O
N       2.77486843      0.58528509      0.53062560
C       1.69982203      0.14704042      0.53165137
C       0.36835209     -0.45525009      0.57645784
C      -0.61064709      0.30288881     -0.26917146
O      -0.41878792      1.30018242     -0.94169763
O      -1.84249012     -0.25275877     -0.22887544
H       0.41579547     -1.48579029      0.20952061
H       0.00019284     -0.46301886      1.60762473
H      -2.38710572      0.32142127     -0.81080482
