21
Cc1cc2[nH]c(=O)[nH]c2cc1N
C      -2.52162937     -1.31622632     -0.09182193
C      -1.20655146     -0.58426981     -0.02770007
C      -0.02217445     -1.33951125      0.09286214
C       1.16553244     -0.65096858      0.10888834
N       2.46903860     -1.12522070      0.20260415
C       3.34910370     -0.03474850      0.14887638
O       4.56506886     -0.07789747      0.19927769
N       2.55580065      1.11481723      0.02401611
C       1.21817606      0.73309898      0.00165096
C       0.08486883      1.50176038     -0.11395724
C      -1.15582827      0.84208837     -0.07918416
N      -2.31958145      1.59661968     -0.31128364
H      -3.13777918     -1.06229211      0.77656483
H      -3.05737737     -1.05751670     -1.01077704
H      -2.37854775     -2.40209069     -0.09132056
H      -0.04173092     -2.42141485      0.15300449
H       2.76751889     -2.08301388      0.28171822
H       2.92677682      2.04786988     -0.04332376
H       0.14979799      2.57671696     -0.22683169
H      -2.24072190      2.57089391     -0.03624404
H      -3.16976071      1.17130547      0.04298084
