38
NC(Cc1ccc(O)c(O)c1)C(=O)OCc1ccccc1
N      -3.60570491     -1.67946115     -1.79791658
C      -2.60121867     -1.14307853     -0.83805614
C      -2.59307271      0.39092465     -0.90793522
C      -1.74125470      1.03825695      0.15909229
C      -0.50376349      1.61498746     -0.17282783
C       0.30038207      2.19707552      0.81096899
C      -0.13364486      2.19653964      2.12967643
O       0.61617430      2.73991605      3.13629379
C      -1.35991386      1.63061544      2.46516409
O      -1.77929959      1.63532504      3.76500586
C      -2.16797547      1.05465154      1.49475349
C      -1.21432119     -1.69861057     -1.19611338
O      -0.82877819     -1.87901850     -2.34675328
O      -0.50522385     -1.97911365     -0.07105974
C       0.79832311     -2.53341870     -0.27468226
C       1.84357244     -1.45394359     -0.17011671
C       2.36177603     -0.85109286     -1.32433583
C       3.33562069      0.14425194     -1.22620455
C       3.79635095      0.55006222      0.02527128
C       3.27520503     -0.03044424      1.18027046
C       2.29791979     -1.02266477      1.08398889
H      -3.26971501     -1.47586841     -2.74406290
H      -3.59778523     -2.69866696     -1.73819970
H      -2.88429908     -1.49780760      0.15941145
H      -2.25242252      0.72370650     -1.89792684
H      -3.61580868      0.77719941     -0.79957397
H      -0.14911697      1.60356547     -1.20195046
H       1.25632209      2.62466240      0.52743586
H       1.43733897      3.07893936      2.74027021
H      -1.06194258      2.09162139      4.24808764
H      -3.12174508      0.62170428      1.78384957
H       0.96273939     -3.27833311      0.51290417
H       0.88068092     -3.08151886     -1.22143043
H       2.00858085     -1.15725108     -2.30770997
H       3.73726816      0.59908774     -2.12806534
H       4.56095709      1.31866293      0.09930882
H       3.62760959      0.28745764      2.15789882
H       1.89018521     -1.45892114      1.99364628
