25
NS(=O)(=O)c1cc2c(cc1Cl)NCNS2(=O)=O
N      -3.58494249      1.43125758     -0.55474774
S      -3.41515700     -0.20454480     -0.19437636
O      -3.88522868     -0.88850918     -1.37512018
O      -4.01158256     -0.35745873      1.11070495
C      -1.67606906     -0.45525896     -0.05315471
C      -0.79306982      0.61763028     -0.20799445
C       0.58390852      0.39126176     -0.09787665
C       1.11797090     -0.87527289      0.14836338
C       0.20930710     -1.92524773      0.33986741
C      -1.17760429     -1.72926078      0.22663436
Cl     -2.18076520     -3.11483742      0.46289038
N       2.48163089     -1.10750521      0.36510845
C       3.41953988     -0.14988419     -0.17225234
N       3.10504368      1.14303603      0.36773802
S       1.67965180      1.76139941     -0.24494940
O       1.85672146      2.01179204     -1.65723454
O       1.23785339      2.78379930      0.67608597
H      -4.02966093      1.52893118     -1.46985959
H      -4.10840310      1.88778013      0.19526971
H      -1.15146100      1.62577922     -0.40414935
H       0.58220251     -2.91787461      0.58802177
H       2.75240487     -2.06695187      0.15559361
H       4.42755568     -0.42549681      0.15502633
H       3.43085612     -0.15787986     -1.26808168
H       3.12929735      1.19331608      1.38320986
