20
O=C([O-])CCCCC(=O)[O-].[Li+].[Li+]
O       3.11735371     -1.73400863     -0.04220999
C       3.13679220     -0.63189709     -0.65692280
O       4.10825760     -0.08033134     -1.25724137
C       1.82994350      0.17002336     -0.70218991
C       0.62289561     -0.44595353      0.00537464
C      -0.62289730      0.44594428     -0.10817620
C      -1.82994697     -0.17002607      0.59939053
C      -3.13678843      0.63190520      0.55412960
O      -3.11734443      1.73401316     -0.06058824
O      -4.10825273      0.08035500      1.15446155
Li      0.00000000      0.00000000      0.00000000
Li      0.00000000      0.00000000      0.00000000
H       2.03753629      1.15548739     -0.26636044
H       1.58322279      0.33084656     -1.75928225
H       0.86203509     -0.60815178      1.06351676
H       0.40860652     -1.43120307     -0.42651123
H      -0.40860416      1.43119348      0.32370974
H      -0.86203832      0.60814494     -1.16631762
H      -2.03754847     -1.15548657      0.16356032
H      -1.58322252     -0.33085529      1.65648119
