55
CC(=O)[C@H]1CC[C@H]2[C@@H]3CC=C4C[C@@H](O)CC[C@]4(C)[C@H]3CC[C@]12C
C      -6.15324221      0.20980298     -0.94384120
C      -4.72474731     -0.10765276     -1.31127467
O      -4.47473857     -0.70801151     -2.35639022
C      -3.62907640      0.43061725     -0.39362064
C      -3.93650408      0.27015810      1.11406292
C      -2.57920536      0.12697773      1.82511850
C      -1.55914930      0.39978196      0.72537575
C      -0.11194313     -0.05780436      0.93839310
C       0.48336389      0.59103122      2.19763661
C       1.97449751      0.49343737      2.27358541
C       2.77186747      0.13946103      1.24953448
C       4.26948666      0.04661555      1.44799858
C       5.04157373      0.82275164      0.37994169
O       6.44077244      0.58310927      0.51571364
C       4.61380954      0.39742365     -1.02037435
C       3.10666177      0.56116745     -1.21424445
C       2.23666349     -0.18052734     -0.15545159
C       2.35253590     -1.70795077     -0.37574104
C       0.74149114      0.31109680     -0.30951510
C       0.06778747     -0.11694963     -1.64139423
C      -1.41069998      0.29350012     -1.74813846
C      -2.21852898     -0.19560583     -0.53795414
C      -2.28142849     -1.74561023     -0.52395345
H      -6.81000204     -0.03842416     -1.78272193
H      -6.25142266      1.27779150     -0.73358890
H      -6.45763761     -0.37895311     -0.07608209
H      -3.56902615      1.50627584     -0.61579458
H      -4.47840654      1.14702306      1.48629094
H      -4.55892846     -0.60711176      1.32231123
H      -2.46718947     -0.88193928      2.23758750
H      -2.48782665      0.83589409      2.65433459
H      -1.52416156      1.49629858      0.60707245
H      -0.09320065     -1.14324367      1.08684106
H       0.21305377      1.65300887      2.25047953
H       0.05400061      0.11033264      3.08497441
H       2.40895948      0.72672299      3.24380806
H       4.56684310      0.41876400      2.43703078
H       4.57853985     -1.00619382      1.43937960
H       4.87482677      1.90006914      0.50217599
H       6.70488411      0.89443605      1.39837179
H       5.15025643      0.99816373     -1.76538861
H       4.91785633     -0.63918829     -1.21119437
H       2.85345092      0.21741507     -2.22422113
H       2.87947829      1.63570313     -1.18801913
H       1.67498945     -2.26581883      0.27874943
H       3.36219983     -2.08222668     -0.17625029
H       2.12545180     -1.98565497     -1.41008583
H       0.76904200      1.41273007     -0.33878843
H       0.60323064      0.32948630     -2.48677592
H       0.13338482     -1.20065004     -1.77501831
H      -1.46696586      1.38706978     -1.82435982
H      -1.83021418     -0.10251350     -2.68021729
H      -1.30447337     -2.20597667     -0.35482154
H      -2.95111132     -2.13121979      0.25106406
H      -2.64112886     -2.13488996     -1.48192053
