44
Cc1ccc(S(=O)(=O)Oc2c(C(=O)c3ccc(Cl)cc3Cl)c(C)nn2C)cc1
C       4.43692988     -3.18181717      1.78905778
C       3.61117402     -2.00796553      1.35520044
C       2.43476104     -1.69146380      2.04529148
C       1.67084037     -0.59038180      1.66449396
C       2.08471431      0.19600765      0.58950992
S       1.08680653      1.56108421      0.03842692
O       1.02472109      1.46662391     -1.40836020
O       1.59976309      2.74483984      0.70783874
O      -0.40357844      1.22896542      0.64042947
C      -1.48238511      1.86496467      0.17867453
C      -2.51443345      1.43540174     -0.64216497
C      -2.71700187      0.13538905     -1.25611655
O      -3.64460776     -0.11595845     -2.01541601
C      -1.77347642     -0.96121030     -0.97939740
C      -0.84503894     -1.29642450     -1.97408503
C       0.02934487     -2.36743366     -1.77265916
C      -0.03480911     -3.10455332     -0.59082682
Cl      1.03580926     -4.42646808     -0.35134039
C      -0.96664846     -2.78159099      0.39681248
C      -1.83979716     -1.70716031      0.20277268
Cl     -2.97382861     -1.35256868      1.45135779
C      -3.35281303      2.58012640     -0.77618074
C      -4.60333421      2.71116484     -1.56873230
N      -2.89830406      3.62106770     -0.06888096
N      -1.78765923      3.15762900      0.52865298
C      -1.10579846      4.01676138      1.46915088
C       3.26007506     -0.10312333     -0.10676527
C       4.02658070     -1.19758735      0.28745550
H       5.03865428     -2.91067165      2.66607085
H       5.11450756     -3.50681715      0.98635315
H       3.79326850     -4.03570752      2.04127055
H       2.10758740     -2.30593865      2.89546966
H       0.76218156     -0.36059854      2.22566732
H      -0.80395541     -0.72930060     -2.90473443
H       0.75069438     -2.62178970     -2.54658781
H      -1.02490071     -3.37018828      1.30642175
H      -5.34974997      1.98961695     -1.22719155
H      -4.40405993      2.52543545     -2.62949445
H      -5.04077944      3.70906467     -1.47433421
H      -0.57198552      3.40364235      2.19572074
H      -1.84452282      4.62615733      1.99224900
H      -0.41659770      4.65394838      0.91290765
H       3.58294746      0.51118617     -0.94644432
H       4.94870445     -1.41235774     -0.23675797
