38
CCN1c2cc(OC)cc(C)c2NC(=O)c2cccnc21
C      -2.45103461     -1.95147785      2.12033709
C      -1.24628297     -1.97971295      1.18013872
N      -1.02869978     -0.66880251      0.53561416
C       0.31313268     -0.28000005      0.29520961
C       1.33591361     -1.24087979      0.15302808
C       2.68009250     -0.89172735      0.01239214
O       3.53694173     -1.95095116     -0.10537694
C       4.91561802     -1.65132240     -0.28354771
C       3.03212113      0.45090490      0.01348063
C       2.04643871      1.44723007      0.11988468
C       2.49145120      2.88781215      0.09208230
C       0.68076069      1.08087884      0.22753550
N      -0.25928961      2.12231467      0.32931540
C      -1.58988218      2.16701383      0.01107200
O      -2.18949553      3.23280462      0.17726752
C      -2.29750636      1.05179423     -0.63961147
C      -3.34016024      1.38286846     -1.52248340
C      -4.09560443      0.38235870     -2.11652452
C      -3.79211059     -0.92147851     -1.79154843
N      -2.80713232     -1.26833829     -0.93478099
C      -2.05110149     -0.28829983     -0.35908744
H      -3.39420859     -1.80470151      1.58653927
H      -2.35223257     -1.14459930      2.85444655
H      -2.52349361     -2.89905458      2.66398650
H      -0.39352311     -2.23389149      1.82345039
H      -1.34007720     -2.78903204      0.44492592
H       1.09543319     -2.30118784      0.13610818
H       5.32033536     -1.12627439      0.58792970
H       5.08039417     -1.07925133     -1.20262734
H       5.45383117     -2.59913369     -0.38045497
H       4.07064172      0.75312724     -0.07802458
H       3.57123400      2.97590133     -0.06941952
H       1.99794608      3.42419752     -0.72492539
H       2.26188347      3.37351658      1.04589742
H       0.08263692      3.04648974      0.55452935
H      -3.56456210      2.42565323     -1.73755719
H      -4.90172203      0.61672088     -2.80195602
H      -4.34868700     -1.75147011     -2.21724519
