46
CC1(C)SC2C(NC(=O)C3(N)CCCCC3)C(=O)N2C1C(=O)O
C       2.64725888      1.49755900     -1.45183468
C       3.29837779      0.36777490     -0.63541765
C       4.35919957     -0.31270344     -1.50974850
S       1.97433398     -0.87460141     -0.26075527
C       1.87147142     -0.45426897      1.53184995
C       0.69300030      0.45548678      1.97928237
N      -0.49566789      0.52432468      1.08925629
C      -1.39373916     -0.52283383      1.02668460
O      -1.27422112     -1.50735440      1.75244414
C      -2.50003316     -0.37597825     -0.06317842
N      -1.84051536     -0.35601510     -1.39298661
C      -3.29522947      0.93016039      0.14335742
C      -4.50931567      1.05250797     -0.77981682
C      -5.42291842     -0.16348022     -0.68050753
C      -4.66111060     -1.46025290     -0.92826689
C      -3.45660609     -1.58661366      0.00457507
C       1.72410803      1.59669929      1.81637036
O       1.68961951      2.79759492      1.68175991
N       2.75658238      0.71110642      1.70579534
C       3.81664698      0.89293225      0.72243677
C       5.05178238      0.16073056      1.24120316
O       5.08375206     -0.84780520      1.92838202
O       6.20391803      0.73642005      0.83477706
H       3.38359833      2.27667168     -1.68174100
H       2.25565949      1.13149919     -2.40869021
H       1.81934596      1.97963130     -0.92277665
H       4.79677512     -1.19410707     -1.02767676
H       3.93999901     -0.64284602     -2.46813901
H       5.17472678      0.38222696     -1.74063568
H       2.11004867     -1.27798454      2.21067871
H       0.39499770      0.32459769      3.02717516
H      -0.61509329      1.31772493      0.47100766
H      -1.36660340     -1.25209475     -1.53240762
H      -1.10166825      0.34302089     -1.41542847
H      -2.65832906      1.81073297     -0.00655551
H      -3.63589268      0.98278291      1.18646508
H      -5.07398732      1.95560540     -0.52089084
H      -4.17636735      1.17731598     -1.81726855
H      -6.24062824     -0.07132440     -1.40413681
H      -5.88091258     -0.19437373      0.31586117
H      -5.33218551     -2.31325764     -0.77526337
H      -4.33262371     -1.50181431     -1.97358780
H      -3.82532158     -1.70174479      1.03327680
H      -2.91921114     -2.51633974     -0.22498425
H       4.05840843      1.96233084      0.67654897
H       6.90457024      0.18329918      1.24350690
