26
CCOC(=O)c1ccc(O)c(OC)c1
C      -4.33550628     -0.34888713     -0.31248774
C      -3.54638769     -0.80351414      0.90084788
O      -2.28642950     -0.11819916      0.95633752
C      -1.27339262     -0.68761076      0.25825825
O      -1.34287165     -1.71119254     -0.40367423
C      -0.02482265      0.11206846      0.39570627
C       0.03126397      1.28834546      1.15879741
C       1.22588486      2.00134130      1.25515923
C       2.35220007      1.53427885      0.58964325
O       3.51061412      2.25366393      0.70164580
C       2.32166142      0.36403973     -0.17770395
O       3.51093795      0.03174578     -0.77375220
C       3.51931746     -1.15292067     -1.56361902
C       1.12553208     -0.34668524     -0.27203935
H      -3.80943503     -0.59841776     -1.23936052
H      -5.32183598     -0.82086900     -0.33283566
H      -4.46401581      0.73845740     -0.30208469
H      -3.40952185     -1.89101042      0.90634047
H      -4.09220225     -0.54342744      1.81369394
H      -0.84542526      1.66105163      1.68261758
H       1.28005076      2.91301046      1.84322794
H       4.16685119      1.76321755      0.16885952
H       3.29128088     -2.03415887     -0.95501384
H       4.52923763     -1.27819303     -1.96578280
H       2.83144136     -1.06654689     -2.41117500
H       1.05557280     -1.25958751     -0.85620710
