24
c1ccc(N=Nc2ccccc2)cc1
C       4.47798596     -0.19573470      0.14603831
C       3.82051479      0.10440086      1.33823298
C       2.44152832      0.32754871      1.33706169
C       1.70614487      0.24414072      0.14987011
N       0.32376831      0.50502404      0.17847594
N      -0.32205687     -0.49071832     -0.21725720
C      -1.70495255     -0.23416974     -0.17690502
C      -2.29313196      0.77953216     -0.94576128
C      -3.67336596      0.99072592     -0.90918727
C      -4.47960204      0.18221366     -0.10938888
C      -3.90816149     -0.83780779      0.65000985
C      -2.52741681     -1.04624383      0.61129348
C       2.38084942     -0.04553024     -1.04409535
C       3.75957134     -0.26937667     -1.04637419
H       5.55116548     -0.36948642      0.14577899
H       4.37945592      0.16668321      2.26825079
H       1.93152369      0.56552051      2.26687526
H      -1.66784966      1.40740352     -1.57501107
H      -4.11694785      1.78369996     -1.50548251
H      -5.55406149      0.34525327     -0.08008693
H      -4.53546473     -1.47212876      1.27077987
H      -2.08438907     -1.84465829      1.20082517
H       1.82439530     -0.09745445     -1.97620069
H       4.27049707     -0.49883733     -1.97774206
