46
CCOC(=O)C1=C(C)NC(C)=C(C(=O)OC)C1c1cccc([N+](=O)[O-])c1
C       3.83531709      1.96562650     -0.99460915
C       4.21601112      0.54493528     -0.62063891
O       3.08286528     -0.13489871     -0.06371733
C       2.25478066     -0.72610341     -0.96059669
O       2.38961686     -0.74860327     -2.17359906
C       1.06882196     -1.26318546     -0.26387623
C       1.13627395     -2.14217972      0.76058808
C       2.41440360     -2.71889635      1.31217894
N      -0.03661653     -2.60026017      1.34260047
C      -1.31057238     -2.30916342      0.87598661
C      -2.43853548     -3.06026622      1.53564326
C      -1.46152640     -1.43292506     -0.14300611
C      -2.76892338     -1.07619402     -0.73172597
O      -2.99092409     -1.08698577     -1.93257358
O      -3.62314477     -0.66671236      0.23917464
C      -4.89002232     -0.23111646     -0.25352660
C      -0.26410664     -0.76143296     -0.80394883
C      -0.35697544      0.76581302     -0.68503009
C      -0.46971637      1.55241527     -1.84354924
C      -0.54413263      2.94460648     -1.75945865
C      -0.50704647      3.57524278     -0.51625226
C      -0.39632072      2.80131289      0.64536740
N      -0.35470315      3.46124627      1.95628003
O      -0.26014329      2.74382496      2.96253929
O      -0.41610302      4.69911478      1.98131514
C      -0.32257140      1.40356260      0.56866468
H       3.06480646      1.97417282     -1.77204523
H       4.70596614      2.51712516     -1.36027631
H       3.41961783      2.49294121     -0.12958110
H       4.62725492     -0.00001736     -1.47807803
H       4.99107831      0.56228335      0.15245172
H       2.65397951     -2.25110685      2.27246907
H       3.26799018     -2.59195421      0.64067556
H       2.30566660     -3.79727593      1.47441736
H       0.04632716     -3.30669423      2.07018653
H      -3.34454720     -3.09574983      0.92441332
H      -2.14885739     -4.10175516      1.71620109
H      -2.68271661     -2.60200335      2.49928491
H      -5.40037798     -1.04709285     -0.77479323
H      -4.76767817      0.63440376     -0.91229019
H      -5.50134438      0.06880246      0.60204494
H      -0.29535107     -1.03779570     -1.86824684
H      -0.49822151      1.08148801     -2.82633238
H      -0.63003661      3.53665371     -2.66827538
H      -0.56497638      4.66072393     -0.47090309
H      -0.23458586      0.80407357      1.47444744
