30
N#Cc1c(N)nc2nc(C3CCC3)ncc2c1N
N      -5.94548281      0.43623100     -1.12059538
C      -4.79865721      0.45907459     -0.93888430
C      -3.39122271      0.45111486     -0.68166752
C      -2.52515964      1.15762773     -1.51004552
N      -2.96567325      1.93843384     -2.57782083
N      -1.19542095      1.18563230     -1.31585286
C      -0.64742201      0.48247192     -0.32769274
N       0.67517921      0.52001237     -0.23408190
C       1.26965468     -0.19705675      0.72949253
C       2.81880014     -0.14449415      0.82952417
C       3.52250898      1.24277603      0.86874222
C       4.68501373      0.59916555      0.08734384
C       3.66350174     -0.42417851     -0.44697935
N       0.61908400     -0.96347159      1.61314186
C      -0.71958251     -0.98177474      1.49774010
C      -1.43757136     -0.26234090      0.54756282
C      -2.85376450     -0.24064455      0.41484724
N      -3.66633240     -1.06054474      1.23388189
H      -2.14305807      2.32277350     -3.04085621
H      -3.56244282      1.44041095     -3.23062083
H       3.17523274     -0.77204548      1.66305426
H       3.77605320      1.61706836      1.86426637
H       3.00823191      2.03590812      0.31332986
H       5.16231792      1.23268527     -0.66415247
H       5.45743224      0.15871325      0.72814498
H       3.19037782     -0.11964017     -1.38796099
H       4.03519010     -1.44683011     -0.55410068
H      -1.21215830     -1.62481505      2.22047851
H      -3.33310337     -1.20149023      2.18341639
H      -4.66152648     -0.83595297      1.23634452
