43
CCCCOC(=O)C(C)c1ccc2cc(OC)ccc2c1
C       5.51595017     -1.93121975      0.87434321
C       4.57985694     -2.02969373     -0.31943604
C       3.38434762     -1.08253374     -0.23475295
C       3.76904112      0.39340647     -0.29630975
O       2.58156749      1.20027023     -0.23624225
C       1.99267712      1.48724489     -1.43397205
O       2.42069624      1.14312690     -2.52835882
C       0.70685079      2.27070836     -1.20552204
C       0.42538321      3.20191545     -2.38787580
C      -0.46029060      1.34282668     -0.91614526
C      -0.92515711      0.43600416     -1.87691930
C      -1.99385233     -0.41727561     -1.59211317
C      -2.62101092     -0.38923445     -0.33826019
C      -3.69728273     -1.24069572     -0.03672038
C      -4.31680939     -1.21210371      1.21626667
O      -5.35082322     -2.09583182      1.36211351
C      -6.01038282     -2.11306290      2.62149209
C      -3.85617875     -0.32191350      2.18404524
C      -2.78616684      0.53428630      1.89845130
C      -2.15912152      0.51317679      0.64263250
C      -1.08399186      1.36848260      0.34187648
H       6.29591067     -2.69613725      0.80378259
H       4.97457826     -2.08514910      1.81298025
H       6.01096964     -0.95732780      0.91718947
H       4.20383759     -3.05794438     -0.38399218
H       5.14183301     -1.84046182     -1.24154357
H       2.81217063     -1.27390527      0.68271674
H       2.69682250     -1.30914201     -1.05960626
H       4.37762003      0.67273871      0.56964057
H       4.36009527      0.62134291     -1.19135519
H       0.88036443      2.92433701     -0.33962054
H      -0.47671607      3.79871328     -2.21112697
H       1.26274767      3.89126434     -2.54145829
H       0.28383725      2.65072438     -3.32497289
H      -0.45622495      0.37812058     -2.85784916
H      -2.33228663     -1.10962092     -2.36030631
H      -4.06513527     -1.94001560     -0.78528699
H      -5.32483158     -2.41339703      3.42143168
H      -6.47430191     -1.14461085      2.83867503
H      -6.80923536     -2.85990713      2.56941680
H      -4.30469234     -0.26415041      3.17013774
H      -2.44534236      1.22281813      2.66984495
H      -0.72732308      2.06228542      1.10270949
