18
CCc1ccccc1
C       2.46134612     -0.08491560      0.61062847
C       1.62194284     -0.20247089     -0.65231409
C       0.14981016     -0.06064287     -0.36217110
C      -0.62399648     -1.18523074     -0.04593157
C      -1.98397804     -1.05100790      0.23838066
C      -2.58153851      0.20773883      0.21385672
C      -1.81953456      1.33352276     -0.09287361
C      -0.45942660      1.20113346     -0.37744038
H       2.31875370      0.88784144      1.09341999
H       3.52382454     -0.19160467      0.37007568
H       2.19809395     -0.86178522      1.33647165
H       1.93084180      0.56239850     -1.37523452
H       1.81142945     -1.16914607     -1.13469528
H      -0.17035253     -2.17328362     -0.01863942
H      -2.57668517     -1.92908201      0.48057175
H      -3.64018046      0.31157510      0.43578276
H      -2.28394101      2.31588456     -0.10913016
H       0.12359079      2.08907493     -0.61075756
