31
CCN(CC)C(=O)Cn1cc(Br)c(=O)c(Br)c1
C      -2.30739849     -2.29787749      0.51697296
C      -2.69266279     -1.04525613     -0.25507399
N      -1.58440194     -0.09196756     -0.33009550
C      -1.48576176      0.89396936      0.74653337
C      -2.30259794      2.14057150      0.44493134
C      -0.67535118     -0.22507770     -1.37770555
O      -0.79208790     -1.11630683     -2.22624725
C       0.50346796      0.75427629     -1.47343132
N       1.64733172      0.35025824     -0.61720683
C       2.30492655      1.27622351      0.18529079
C       3.38276985      1.01502530      0.94104696
Br      4.19905866      2.30584831      2.00477012
C       3.93824289     -0.37848632      0.91236944
O       4.89778377     -0.70244386      1.60828295
C       3.26904925     -1.35189744     -0.01224301
Br      3.94443571     -3.07901412     -0.16684408
C       2.19916839     -0.92584476     -0.70164711
H      -3.15033555     -2.99456426      0.55573397
H      -1.46214010     -2.80903163      0.04466187
H      -2.01715490     -2.05485922      1.54416005
H      -3.55258330     -0.55642007      0.21566212
H      -3.00045909     -1.32717122     -1.26831155
H      -1.83222145      0.43225759      1.67789180
H      -0.44438423      1.17505875      0.90747754
H      -1.97180790      2.61773507     -0.48284495
H      -2.20233869      2.86596527      1.25811242
H      -3.36456827      1.89953780      0.33297609
H       0.15704599      1.76659536     -1.24038217
H       0.83420359      0.78348818     -2.51941882
H       1.87191699      2.27324620      0.16821140
H       1.68885416     -1.59383809     -1.39363305
