74
CC(C)CCCCCCOC(=O)CCCCC(=O)OCCCCCCC(C)C
C      -7.23385300     -1.89951905     -2.65554583
C      -8.20276394     -0.74801969     -2.38247220
C      -9.64308750     -1.26460645     -2.41912155
C      -7.92974935     -0.05622955     -1.03279201
C      -6.54086804      0.58615795     -0.95032974
C      -6.36408714      1.49951771      0.26861245
C      -6.42301578      0.75121892      1.60322991
C      -6.23912959      1.66910046      2.81848824
C      -4.86110163      2.31979409      2.91443129
O      -3.86356453      1.29310837      3.02106000
C      -2.78679362      1.39245872      2.19332984
O      -2.59704449      2.28200600      1.37695473
C      -1.87414132      0.20919162      2.42460490
C      -0.50591078      0.36058015      1.75979489
C       0.37121409      1.40890061      2.45670309
C       1.77037411      1.49691946      1.84725695
C       2.67414443      0.36167324      2.27276616
O       2.35731075     -0.56157543      3.00745547
O       3.90409744      0.53225650      1.70969189
C       4.88420175     -0.46552766      2.03025731
C       4.77356187     -1.67303104      1.10091321
C       4.79836370     -1.33208679     -0.39366882
C       6.02227450     -0.54801105     -0.87975992
C       7.34137275     -1.29737614     -0.67983347
C       8.57162247     -0.50030312     -1.13124834
C       8.61314853     -0.10392168     -2.61890631
C       8.53821474     -1.31514434     -3.54915399
C       9.89100051      0.69044868     -2.90501488
H      -6.20756409     -1.53739989     -2.76757227
H      -7.25044733     -2.63352786     -1.84256950
H      -7.49770729     -2.41727932     -3.58449613
H      -8.09101500     -0.00779805     -3.18555404
H     -10.35416784     -0.44667146     -2.26396467
H      -9.81685503     -2.01633697     -1.64169654
H      -9.86748129     -1.72265717     -3.38816182
H      -8.04871227     -0.78526060     -0.22202602
H      -8.68897566      0.72068597     -0.87486191
H      -5.76636480     -0.18934510     -0.93071192
H      -6.36864064      1.18663980     -1.85202927
H      -7.12709543      2.28750309      0.25186280
H      -5.39306971      1.99702683      0.16838405
H      -5.66850603     -0.04419144      1.61665602
H      -7.39758885      0.26032871      1.70530702
H      -7.00956293      2.44837065      2.81299550
H      -6.40085748      1.06161893      3.71769271
H      -4.69247530      2.99766914      2.07219099
H      -4.80760619      2.91810129      3.83055463
H      -1.74592561      0.06258952      3.50273401
H      -2.37707520     -0.67244236      2.01170410
H      -0.62626959      0.62541658      0.70251990
H      -0.00594636     -0.61418408      1.78681041
H      -0.10321196      2.39282508      2.36738929
H       0.43983615      1.18660741      3.52861929
H       2.23976552      2.42716541      2.18685201
H       1.70996849      1.51301571      0.75380574
H       5.86753445      0.00544129      1.92985008
H       4.79876186     -0.77349133      3.07957156
H       3.82659548     -2.18930005      1.30133025
H       5.56931661     -2.38692220      1.34036221
H       3.89877780     -0.75551551     -0.64342959
H       4.72723994     -2.26815577     -0.96219607
H       5.87629888     -0.34323842     -1.94657464
H       6.06713037      0.42654488     -0.38106944
H       7.30460337     -2.26178383     -1.19850670
H       7.47528206     -1.52615208      0.38328539
H       8.63811934      0.40894313     -0.51938853
H       9.46392296     -1.09407362     -0.89346663
H       7.76490798      0.55427008     -2.84086582
H       9.33314606     -2.03583782     -3.32748583
H       7.57544222     -1.82839320     -3.45802125
H       8.64310022     -1.00725477     -4.59522244
H      10.78559600      0.08963891     -2.70806237
H       9.92278417      1.01294975     -3.95136911
H       9.93920100      1.58840692     -2.27887871
