18
C[C@H](C(=O)[O-])[C@@H](C)C(=O)[O-]
C      -1.35767612      1.05635534     -0.89432722
C      -0.59893310     -0.18924434     -0.42768171
C      -1.69325211     -1.05527061      0.23430403
O      -1.96592500     -0.81474838      1.44665132
O      -2.23234878     -1.91774778     -0.52618500
C       0.59893601      0.18924580      0.46768638
C       1.35767819     -1.05635538      0.93433410
C       1.69325032      1.05526723     -0.19431156
O       2.23231016      1.91778901      0.56615269
O       1.96595143      0.81470241     -1.40664458
H      -0.72106389      1.69881357     -1.51093038
H      -1.71196994      1.65130359     -0.04472287
H      -2.23204408      0.78882750     -1.49873846
H      -0.23303432     -0.72179935     -1.31555600
H       0.23303707      0.72180615      1.35555848
H       1.71197848     -1.65130674      0.08473712
H       2.23204135     -0.78882480      1.53874925
H       0.72106434     -1.69881322      1.55093563
