17
N#CSCC(CSC#N)SC#N
N       4.59576154     -0.81163478      0.30539081
C       3.56746993     -0.92303328     -0.21659799
S       2.04716161     -1.05698805     -0.94362002
C       1.22413617      0.30618079     -0.05101353
C      -0.25195639      0.46423422     -0.47151303
C      -1.12022217     -0.70615662      0.03821145
S      -2.80589068     -0.68832605     -0.66892867
C      -3.40798604     -2.04076149      0.14581280
N      -3.78915069     -2.97247761      0.71968071
S      -0.88271855      2.05221342      0.23124044
C      -0.27003837      3.09884031     -0.94571400
N       0.18065875      3.78160656     -1.76579409
H       1.79121285      1.21732356     -0.27333331
H       1.29643932      0.11748629      1.02698192
H      -0.31908058      0.51968299     -1.56598520
H      -1.18196933     -0.69472484      1.13343681
H      -0.67382737     -1.66346543     -0.24916267
