32
CCC(C)(OO)OOC(C)(CC)OO
C      -3.41671145      1.37254200     -0.12020947
C      -3.13653046     -0.12319481     -0.05576136
C      -1.82270882     -0.50331596      0.65461645
C      -1.81675158     -0.03682571      2.11207531
O      -1.72913800     -1.94483980      0.67539614
O      -1.34150601     -2.37868714     -0.66653218
O      -0.73485827      0.13134682     -0.04421918
O       0.50808746     -0.46864362      0.45440552
C       1.59687243      0.15019409     -0.26506919
C       1.77374340      1.57368208      0.26802768
C       2.84495311     -0.71226065      0.00660258
C       4.10865057     -0.25473027     -0.70848194
O       1.36693633      0.24295513     -1.68440715
O       0.85865208     -1.05361445     -2.13066230
H      -2.59797514      1.91290197     -0.60499930
H      -3.57003865      1.79477073      0.87708938
H      -4.32775738      1.55636109     -0.69912181
H      -3.10625812     -0.49864377     -1.08676181
H      -3.98041733     -0.63442271      0.42410759
H      -2.69979878     -0.40060849      2.64818470
H      -1.76640993      1.05352094      2.19160530
H      -0.94299343     -0.43468433      2.64133557
H      -0.38133545     -2.42299891     -0.48606955
H       2.57272641      2.10876596     -0.25435816
H       1.97987536      1.57233390      1.34347709
H       0.86008800      2.16030325      0.11749848
H       2.63805577     -1.74564881     -0.30103644
H       3.03250068     -0.76150108      1.08680049
H       3.96359679     -0.21526482     -1.79224811
H       4.42989543      0.73231011     -0.36408330
H       4.92525855     -0.95568646     -0.50653830
H      -0.08870357     -0.81641625     -2.07553807
