34
NS(=O)(=O)c1cc2cc(CNCc3ccccn3)sc2o1
N       7.14574745      0.79442890      0.15407983
S       6.11666951      1.35091709     -1.05113545
O       6.47241377      0.63490128     -2.25335029
O       6.11748800      2.79275154     -0.97015899
C       4.45956167      0.83007509     -0.64645362
C       3.22732444      1.47185950     -0.85413020
C       2.28551848      0.60005901     -0.33986067
C       0.90104248      0.61540678     -0.22570941
C       0.49191581     -0.56850656      0.39355499
C      -0.90549973     -1.00714313      0.72469062
N      -1.53955357     -1.54469769     -0.48337692
C      -2.87763088     -2.07796204     -0.18220302
C      -3.89167336     -1.02620362      0.22090823
C      -4.33831153     -0.08835747     -0.70893470
C      -5.25658953      0.87581492     -0.30401896
C      -5.69989731      0.88208127      1.01265577
C      -5.20164272     -0.07947384      1.87541139
N      -4.30867236     -1.02704664      1.51346587
S       1.84676196     -1.61002036      0.78399931
C       2.89418441     -0.48780281      0.14155338
O       4.22689231     -0.40128663     -0.01892743
H       7.57791694     -0.07995330     -0.14593064
H       7.82937401      1.51654409      0.37972647
H       3.09798858      2.43940076     -1.31833227
H       0.22030590      1.38998482     -0.55549755
H      -1.45535674     -0.13523236      1.09880206
H      -0.89028415     -1.75657963      1.52555484
H      -0.96276018     -2.31526229     -0.81894562
H      -2.81273945     -2.85001271      0.59489156
H      -3.25756445     -2.58303012     -1.07881316
H      -3.96662521     -0.10375096     -1.72866776
H      -5.61750736      1.61836869     -1.00954844
H      -6.41394894      1.62029428      1.35959225
H      -5.51484826     -0.11289145      2.91510852
