22
CCSC(=S)N[C@@H](C)C(=O)O
C       3.97755703      0.23605238     -1.20347467
C       2.80049693     -0.37241072     -0.46230105
S       1.95961110      0.90293269      0.52213944
C       0.60965361     -0.04398945      1.10868906
S       0.70893464     -1.11489044      2.37808511
N      -0.49721733      0.26330266      0.37154694
C      -1.86236055     -0.25229459      0.53212091
C      -2.63487544      0.55394516      1.56716841
C      -2.56356458     -0.16140820     -0.82118042
O      -2.19457955      0.49801880     -1.78223842
O      -3.69394873     -0.89223710     -0.88540628
H       4.48154626     -0.53392935     -1.79711394
H       3.65560994      1.02540693     -1.89127776
H       4.71563621      0.65560342     -0.51137729
H       2.09432118     -0.80221005     -1.18003327
H       3.15406205     -1.17286115      0.19475434
H      -0.36219607      0.96238554     -0.35448445
H      -1.80547136     -1.30778582      0.81701874
H      -2.70990273      1.60667563      1.27104330
H      -2.14779065      0.52039388      2.54656152
H      -3.65412695      0.17043220      1.68291697
H      -4.03139502     -0.74113241     -1.79378069
