26
C=C(C)[C@H]1CC=C(C)CC1
C       2.59811821     -1.21608319      1.42641544
C       2.12512864     -0.06845387      0.90981583
C       3.07044832      1.07008863      0.61645687
C       0.65180132      0.20727990      0.60548345
C       0.39855805      0.24426217     -0.91824584
C      -1.05736253      0.29667221     -1.29092183
C      -2.05887512      0.06205905     -0.42529346
C      -3.50186427      0.16747406     -0.82533066
C      -1.79541594     -0.32442808      1.00826970
C      -0.34895157     -0.75995447      1.26498343
H       1.95894726     -2.06117374      1.65766877
H       3.65669725     -1.35057642      1.63087928
H       2.75624174      1.97242402      1.15106748
H       4.09643603      0.84523299      0.92741093
H       3.09253686      1.28807008     -0.45551544
H       0.42928354      1.20515123      1.01282085
H       0.89020817      1.12616897     -1.34669835
H       0.84306761     -0.63471634     -1.40230168
H      -1.27801397      0.55196189     -2.32500208
H      -4.00359910     -0.79694572     -0.69638969
H      -4.01293150      0.91186384     -0.20626452
H      -3.61824619      0.46725671     -1.87209632
H      -2.45924857     -1.14706415      1.30018672
H      -2.03989553      0.53057422      1.65068732
H      -0.21171659     -1.77461869      0.86764391
H      -0.18135211     -0.81252530      2.34773717
