56
CC(=O)OC1CCC2C3CCC4CC(=O)CCC4(C)C3CCC12C
C       5.51959973     -1.23651241      1.80982791
C       4.99738486     -0.31551696      0.74990862
O       5.55124816      0.71661417      0.40118528
O       3.82988951     -0.80397850      0.25121924
C       3.19352053     -0.02296130     -0.76548863
C       2.48708323     -0.96174421     -1.73062759
C       1.48779156     -0.06592899     -2.43317275
C       1.03328235      0.97873842     -1.39310351
C      -0.42406738      0.81765414     -0.89325332
C      -1.43905996      0.96528436     -2.03268961
C      -2.86718805      0.87900954     -1.51534705
C      -3.12723220     -0.44141496     -0.76573003
C      -4.59601292     -0.48789823     -0.31659853
C      -4.84032934      0.40954612      0.87357439
O      -5.82491062      1.14503535      0.93232040
C      -3.89062160      0.26918181      2.03663046
C      -2.43829475      0.30817473      1.56967658
C      -2.11847599     -0.67976662      0.41059959
C      -2.27734509     -2.13917637      0.91790842
C      -0.64008479     -0.50528070     -0.11913566
C       0.45132568     -0.71973070      0.95949396
C       1.42656285      0.44526255      1.09821672
C       2.07272473      0.91245859     -0.22838799
C       2.66463321      2.31432089      0.02670327
H       4.79801729     -1.30645911      2.62769992
H       6.45801979     -0.83820887      2.20609376
H       5.71336106     -2.22300178      1.38129699
H       3.93353272      0.54487516     -1.34650446
H       3.19142476     -1.41907176     -2.43386711
H       1.99307171     -1.78856345     -1.21235154
H       0.67921971     -0.65252681     -2.87445725
H       1.99141754      0.45319043     -3.25880386
H       1.09061232      1.95995500     -1.88539130
H      -0.60686114      1.65660325     -0.20812082
H      -1.29693669      0.18978408     -2.79279749
H      -1.29724677      1.92960042     -2.53522158
H      -3.55272071      0.95870365     -2.36836889
H      -3.07468150      1.74273008     -0.87272712
H      -2.99120024     -1.25047672     -1.49811877
H      -4.89422819     -1.50379573     -0.03811550
H      -5.25656476     -0.17688146     -1.13430596
H      -4.06883484      1.09155083      2.73838002
H      -4.12001380     -0.66477328      2.55907128
H      -2.21119377      1.33481828      1.26177266
H      -1.80318191      0.10838224      2.43941177
H      -3.29755978     -2.36678551      1.23826245
H      -2.02126395     -2.85557239      0.12891434
H      -1.62991484     -2.34685115      1.77534591
H      -0.49780599     -1.31637637     -0.84948459
H       0.02061246     -0.90813078      1.94682297
H       1.00777033     -1.63480217      0.72748572
H       2.19610028      0.18822223      1.83596289
H       0.87432280      1.28178395      1.54928173
H       3.17636399      2.70147331     -0.86157882
H       3.38664012      2.29773044      0.84971571
H       1.87829830      3.03150325      0.28893479
