21
O=C([O-])CC(O)(CC(=O)[O-])C(=O)O.[Na+].[Na+]
O       1.68047701      1.23297470     -1.28502411
C       2.27424590      0.69204743     -0.30631992
O       3.51501857      0.59395231     -0.09331013
C       1.37418666      0.11725996      0.77488433
C      -0.12833048     -0.04924289      0.49619626
O      -0.62356281     -0.69425707      1.70403208
C      -0.41648909     -0.99418478     -0.68163128
C      -1.89734182     -1.31363900     -0.88405612
O      -2.22830571     -1.64177656     -2.05890157
O      -2.61517986     -1.27097130      0.15841512
C      -0.84700170      1.32952789      0.33599610
O      -1.65232173      1.78928475      1.14404508
O      -0.51219604      2.04762731     -0.76370678
Na      0.00000000      0.00000000      0.00000000
Na      0.00000000      0.00000000      0.00000000
H       1.49918706      0.76149020      1.65691630
H       1.79133442     -0.85704512      1.06679551
H      -1.57543340     -0.87182715      1.48323717
H      -0.02980600     -0.58807852     -1.62199454
H       0.07923950     -1.95849002     -0.51006752
H       0.31227953      1.67534785     -1.20477979
