18
Clc1cccc2c(Cl)cccc12
Cl     -1.75973520     -2.91007201     -0.10712403
C      -1.42189534     -1.20852055     -0.05585092
C      -2.52867897     -0.35611145     -0.05113480
C      -2.34315492      1.01732265     -0.01117208
C      -1.05016998      1.53773732      0.02407085
C       0.09538247      0.70393151      0.02048649
C       1.42189551      1.20852083      0.05584974
Cl      1.75973501      2.91007243      0.10712542
C       2.52867900      0.35611155      0.05113434
C       2.34315485     -1.01732270      0.01117180
C       1.05017000     -1.53773756     -0.02407125
C      -0.09538220     -0.70393146     -0.02048856
H      -3.53735862     -0.76074615     -0.07858923
H      -3.20017844      1.68626376     -0.00728088
H      -0.94638168      2.62133540      0.05490709
H       3.53735868      0.76074611      0.07858977
H       3.20017831     -1.68626386      0.00728116
H       0.94638153     -2.62133579     -0.05490491
