22
Clc1ccc(-c2cc(Cl)cc(Cl)c2Cl)c(Cl)c1
Cl      5.24546924     -0.46910360     -0.14400509
C       3.53285024     -0.31812723     -0.08914265
C       2.79325909     -0.42108519     -1.26430519
C       1.40213373     -0.29759355     -1.22273607
C       0.73354271     -0.07164441     -0.00559432
C      -0.73523606      0.05078090     -0.00274449
C      -1.30628457      1.32216945     -0.20081064
C      -2.68965534      1.48992493     -0.19823990
Cl     -3.35824343      3.05550503     -0.44225843
C      -3.53257549      0.40245573     -0.00185958
C      -2.98731130     -0.86859417      0.19352547
Cl     -4.09849762     -2.17485738      0.42542289
C      -1.59400166     -1.05405369      0.19374380
Cl     -0.91807392     -2.63867795      0.42765545
C       1.50601276      0.03152717      1.16889092
Cl      0.77184286      0.32129476      2.70949156
C       2.89761736     -0.09167199      1.12804302
H       3.29074387     -0.60008894     -2.21457272
H       0.83812445     -0.38645346     -2.15022496
H      -0.66247838      2.18800742     -0.35073789
H      -4.61087039      0.54236654     -0.00065731
H       3.48163187     -0.01208037      2.04111612
