28
CCCOC(=O)COc1ccc(Cl)cc1Cl
C      -4.24034448      1.88216221     -0.96931162
C      -4.49796830      0.53556861     -0.30802703
C      -3.44659920     -0.50463641     -0.68130146
O      -2.17011019     -0.07921879     -0.18513446
C      -1.14299904     -0.93427973     -0.47748584
O      -1.26496860     -1.97900759     -1.10085554
C       0.14983912     -0.37100031      0.09577221
O       1.24905715     -1.22726652     -0.18522158
C       2.48735846     -0.85466621      0.26680466
C       2.74950139      0.31434641      0.99016286
C       4.05171185      0.60896795      1.40956659
C       5.09656323     -0.26168507      1.10870531
Cl      6.69311008      0.11036654      1.62914093
C       4.85619982     -1.42782606      0.39121422
C       3.55591973     -1.72130820     -0.02716179
Cl      3.30848950     -3.18416381     -0.91685823
H      -3.28284726      2.30608447     -0.65084418
H      -4.22869517      1.78669495     -2.05974166
H      -5.02879409      2.59180590     -0.69927636
H      -5.48864438      0.17242864     -0.60276743
H      -4.50361553      0.67817072      0.77885760
H      -3.70969109     -1.46467133     -0.22227511
H      -3.40180299     -0.62261516     -1.77042565
H       0.31266117      0.60811243     -0.36931988
H       0.01424254     -0.28337968      1.17992158
H       1.96719920      1.02135418      1.24722637
H       4.24277222      1.52066034      1.97113591
H       5.67245484     -2.10571169      0.15749958
