20
COc1cc([N+](=O)[O-])ccc1N
C       2.34924184     -1.46319224     -0.87865805
O       1.99583531     -0.13125090     -0.52630935
C       0.69057209      0.09431845     -0.15718184
C      -0.25380372     -0.90458036      0.09270316
C      -1.55782237     -0.54279827      0.46237051
N      -2.55365686     -1.59053502      0.72194799
O      -2.19907678     -2.77004980      0.58282434
O      -3.68945784     -1.23496115      1.06699157
C      -1.92629751      0.80252948      0.57684261
C      -0.97684942      1.79474606      0.33025793
C       0.34033317      1.45339173      0.00417270
N       1.24318708      2.46843694     -0.36362316
H       1.71683380     -1.84225006     -1.68838996
H       2.31215331     -2.12159648     -0.00482946
H       3.38167893     -1.44983531     -1.24098910
H       0.00678892     -1.95420993      0.00436077
H      -2.94054127      1.09402947      0.84139913
H      -1.27130554      2.84004049      0.38602351
H       2.20220050      2.12238416     -0.35940370
H       1.12998636      3.33538273      0.14949039
