45
C/C(=C\C(C)CC(C)CC(C)C)C1CC(=O)OC1=O
C      -2.50182306      1.74841833     -1.12637418
C      -2.22367169      0.48328880     -0.35205180
C      -1.25111617     -0.39547414     -0.67563827
C      -0.23839812     -0.29440702     -1.79717958
C      -0.54969651     -1.36204010     -2.85069476
C       1.20307956     -0.48075320     -1.26973516
C       1.66938153      0.55806311     -0.22295949
C       1.62188548      1.98540207     -0.78433484
C       3.10784519      0.26954424      0.26966320
C       3.34017358     -1.09741475      0.94556620
C       2.41829601     -1.32443223      2.14394652
C       4.80205357     -1.20914012      1.39008644
C      -3.09598340      0.21790425      0.86454946
C      -4.52206709     -0.15831438      0.53474534
C      -5.29779447      0.52734266      1.60532890
O      -6.47291458      0.31409021      1.85763423
O      -4.54115129      1.45621395      2.23122320
C      -3.26251349      1.40323989      1.78511006
O      -2.38737866      2.17842945      2.13632901
H      -2.11278035      1.71625815     -2.14697862
H      -3.57793499      1.92427379     -1.21937288
H      -2.05866663      2.61032242     -0.61819185
H      -1.13482101     -1.28988134     -0.06087119
H      -0.29426219      0.67544807     -2.29818793
H       0.15549075     -1.29795352     -3.68646321
H      -0.48474287     -2.37321034     -2.43289468
H      -1.55888502     -1.22927377     -3.25667217
H       1.89624870     -0.45822318     -2.12143904
H       1.27999908     -1.48729043     -0.84094059
H       0.99791277      0.52857051      0.64262586
H       2.01729273      2.70308305     -0.05720593
H       2.21574714      2.07088343     -1.70059040
H       0.59775704      2.29438125     -1.01068788
H       3.79647641      0.35952507     -0.58152511
H       3.39608188      1.05882314      0.97762108
H       3.16400282     -1.89712687      0.21724729
H       2.66345009     -2.26447490      2.65010856
H       1.37076009     -1.38910774      1.83443181
H       2.51023514     -0.51379488      2.87463279
H       5.05089772     -0.44706504      2.13652438
H       5.00068277     -2.19197171      1.83069889
H       5.47843368     -1.08380892      0.53791888
H      -2.65767979     -0.57523703      1.48651293
H      -4.86365264      0.20237684     -0.43930531
H      -4.66624968     -1.24091496      0.59778983
