38
O=[N+]([O-])c1ccc(N=Nc2ccc(Nc3ccccc3)cc2)cc1
O       8.75420774      0.32506896     -0.69080147
N       8.07651037     -0.70997802     -0.61979912
O       8.51073823     -1.85095404     -0.83250608
C       6.65976211     -0.57503274     -0.25709645
C       6.12650274      0.69426845      0.00225078
C       4.77641029      0.81508267      0.34755220
C       3.95247136     -0.31462766      0.42742712
N       2.60726674     -0.15868250      0.80410826
N       1.84905997     -0.51944438     -0.12319878
C       0.50084789     -0.35023543      0.24158061
C      -0.31821686      0.47409731     -0.53196504
C      -1.67184083      0.63941245     -0.21374095
C      -2.23962139     -0.01461880      0.88446577
N      -3.59970335      0.09085473      1.21962167
C      -4.73659821      0.40709581      0.45533870
C      -4.80889569      0.19711238     -0.92629411
C      -5.94680646      0.56135987     -1.65287796
C      -7.02904957      1.15123744     -1.00582227
C      -6.97364316      1.37475858      0.36681464
C      -5.83478667      1.00695940      1.08916997
C      -1.41720432     -0.85575181      1.64665222
C      -0.06452687     -1.02432289      1.32885493
C       4.50498413     -1.57992807      0.17729902
C       5.85305133     -1.71685662     -0.16916669
H       6.74021018      1.59083630     -0.05748361
H       4.35689887      1.79767530      0.55337480
H       0.10012242      0.99922745     -1.38659462
H      -2.26878259      1.31478606     -0.82080355
H      -3.79854660     -0.07647553      2.19932620
H      -3.99035920     -0.28665761     -1.45199744
H      -5.98594241      0.37844012     -2.72344862
H      -7.91317061      1.43537567     -1.57017241
H      -7.81314841      1.83952985      0.87689539
H      -5.80742173      1.20572092      2.15750074
H      -1.82748792     -1.40293395      2.49173577
H       0.55016422     -1.68845056      1.93045248
H       3.87463830     -2.46354925      0.25176549
H       6.25190596     -2.71039987     -0.36338005
