49
CN1CCN(CCCN2c3ccccc3Sc3ccc(Cl)cc32)CC1
C       5.82351522     -1.15478549     -0.11660829
N       5.35220582     -0.06570327      0.73469002
C       4.18829700     -0.47041543      1.54620987
C       2.85515571     -0.59779645      0.76760560
N       2.52081943      0.61907797      0.00062187
C       1.30942221      0.46414522     -0.81756089
C       0.03448029      0.30061699      0.01854297
C      -1.20550252      0.31610017     -0.88801710
N      -2.45333498      0.09349453     -0.12071048
C      -2.91726595     -1.25085938     -0.01076987
C      -2.08340423     -2.36119484     -0.27953919
C      -2.52545019     -3.68500849     -0.16247317
C      -3.82508009     -3.94773332      0.23389425
C      -4.67374524     -2.88368287      0.51384172
C      -4.23232155     -1.54984592      0.39976433
S      -5.45230683     -0.31227178      0.76755250
C      -4.48592849      1.17762707      0.79022500
C      -5.16009743      2.32352204      1.25952371
C      -4.52574951      3.55929234      1.30696177
C      -3.21124017      3.65058174      0.88451372
Cl     -2.40191098      5.16926309      0.93957918
C      -2.53431251      2.51970265      0.41562242
C      -3.14829503      1.24817593      0.34604211
C       3.66799284      1.00809678     -0.84665758
C       4.99016259      1.12839726     -0.05263665
H       5.07438063     -1.50281994     -0.83469381
H       6.12927288     -2.01048004      0.49575255
H       6.71156698     -0.84217770     -0.67723165
H       4.05567596      0.27717446      2.33994649
H       4.40038067     -1.41334444      2.06554095
H       2.90465933     -1.46838705      0.10128226
H       2.07171111     -0.79913110      1.50627074
H       1.41309524     -0.38279767     -1.50837622
H       1.18736585      1.36449743     -1.43389863
H       0.06863371     -0.63493128      0.58555204
H      -0.02406509      1.10341877      0.76198020
H      -1.25305145      1.25693526     -1.45193411
H      -1.10066150     -0.42709116     -1.68935130
H      -1.04705446     -2.23636891     -0.57429548
H      -1.84527574     -4.50518507     -0.37795598
H      -4.17832885     -4.97062443      0.32822852
H      -5.69457342     -3.09831489      0.82465965
H      -6.19453270      2.25414748      1.59182367
H      -5.05843315      4.43226984      1.67225645
H      -1.50035580      2.66471687      0.12264401
H       3.79959989      0.28913040     -1.66564321
H       3.46297777      1.98333972     -1.30516756
H       5.80660595      1.39082689     -0.73690210
H       4.90430077      1.97640005      0.64006813
