29
C=C(C)C1CCC(C)CC1O
C       3.31608345     -0.34905269     -0.33003756
C       2.06911801      0.09966997     -0.09044790
C       1.74716081      1.54911417     -0.32009716
C       0.99851575     -0.86149265      0.44151343
C       0.22627578     -1.54625121     -0.70331255
C      -0.90933135     -0.69984597     -1.27568666
C      -1.87960072     -0.23015308     -0.18573482
C      -2.97043023      0.65815666     -0.78184726
C      -1.14436921      0.50069914      0.94242547
C       0.00704567     -0.33299389      1.50960255
O       0.68981083      0.39217626      2.52937119
H       3.58987604     -1.38664561     -0.16452203
H       4.10036954      0.30871878     -0.69228133
H       0.92348857      1.66458063     -1.02768427
H       2.60035509      2.09420121     -0.74010074
H       1.48708523      2.04656109      0.61815740
H       1.56045376     -1.65888621      0.95327952
H       0.90731997     -1.83697246     -1.51264781
H      -0.20363193     -2.48122734     -0.31911956
H      -0.49933591      0.15873912     -1.81787553
H      -1.45462687     -1.29652660     -2.01757818
H      -2.36718623     -1.11634156      0.24250695
H      -2.54650564      1.56381374     -1.22885900
H      -3.52422417      0.12340284     -1.56066815
H      -3.68641955      0.96372018     -0.01164717
H      -1.84876353      0.73151386      1.75268141
H      -0.78504385      1.47716320      0.60172800
H      -0.43357921     -1.20956386      2.00387211
H       0.03008987      0.67372231      3.18500966
