39
COc1cc(S(=O)(=O)[O-])c(C)cc1NC(=O)CC(C)=O.[NH4+]
C      -0.85626008      2.23038341     -3.06997156
O      -0.11467326      1.60607512     -2.02606726
C      -0.85019540      0.91728201     -1.08370698
C      -2.23666076      0.77963108     -1.10123190
C      -2.88434914      0.05122635     -0.09217080
S      -4.70201079     -0.11179095     -0.19868591
O      -5.14585164      0.65676451      0.95959250
O      -5.02077272      0.48624429     -1.49418456
O      -4.89792888     -1.55628727     -0.13031796
C      -2.15391904     -0.54253513      0.95429458
C      -2.80690513     -1.34346876      2.04541625
C      -0.75275892     -0.40355007      0.95440919
C      -0.10026493      0.31851041     -0.04921707
N       1.30182760      0.48928715     -0.11206192
C       2.26934470      0.02212748      0.75444462
O       2.08332414     -0.60823662      1.78843429
C       3.65653609      0.39032485      0.28813080
C       4.77416176     -0.41410669      0.90101374
C       4.63938374     -1.91487048      0.94408698
O       5.81025298      0.13548910      1.28574175
N      -0.00000001     -0.00000002     -0.00000003
H      -1.53912432      2.98846238     -2.67235687
H      -1.38814784      1.48894010     -3.67524467
H      -0.14208933      2.73980985     -3.72425355
H      -2.84630915      1.22055953     -1.88234348
H      -3.64634642     -0.80316627      2.49047628
H      -3.14563964     -2.30957222      1.66036020
H      -2.10334581     -1.54504271      2.86109638
H      -0.19036630     -0.87344990      1.75500532
H       1.58715305      1.04494604     -0.91355021
H       3.72983683      0.26773480     -0.79844651
H       3.81713117      1.44729503      0.52951448
H       4.13185241     -2.27112814      0.04388251
H       4.08764720     -2.21755619      1.83612308
H       5.63546782     -2.36633209      0.97178822
H      -0.47153837      0.89236489     -0.18860552
H      -0.57655006     -0.77297978     -0.35260162
H       0.13568590     -0.10821200      1.01198565
H       0.91240254     -0.01117310     -0.47077848
