44
CCC(C)N(C(=O)SCc1ccccc1)C(C)CC
C      -1.50871741      1.32679202     -2.55658144
C      -1.21665842      0.37810519     -1.40238571
C      -1.21173495      1.07036180     -0.02453350
C      -2.58996696      1.60851314      0.37650396
N      -0.63498669      0.17628813      1.02456193
C       0.64598151      0.33655829      1.57493103
O       1.18379524     -0.48355770      2.31070034
S       1.51591747      1.82012168      1.21488307
C       3.07857585      1.07958246      0.66922667
C       2.95375312      0.38741198     -0.66616678
C       2.92447218      1.12906050     -1.85678264
C       2.78657990      0.48683284     -3.08828386
C       2.67463783     -0.90117480     -3.14299788
C       2.69927722     -1.64859034     -1.96714425
C       2.83719829     -1.00856823     -0.73469301
C      -1.36504206     -1.07934826      1.33265372
C      -0.66409802     -2.31758014      0.75484642
C      -1.66197050     -1.28540002      2.83477615
C      -2.44447014     -0.14138067      3.46208624
H      -2.52460397      1.72789202     -2.49962993
H      -0.80360132      2.16392097     -2.56576989
H      -1.41465258      0.79654317     -3.50981049
H      -1.94892115     -0.43723798     -1.42136827
H      -0.23575327     -0.07769502     -1.57899523
H      -0.58529822      1.95665717     -0.13075053
H      -2.55480722      2.04827729      1.37854704
H      -2.91890875      2.39471841     -0.31049658
H      -3.35805823      0.82981916      0.37506255
H       3.82188467      1.88084759      0.58378261
H       3.46518161      0.39450153      1.43211151
H       3.00473048      2.21380528     -1.82922367
H       2.76532439      1.07004489     -4.00516011
H       2.56720674     -1.40073974     -4.10213130
H       2.60860825     -2.73092310     -2.00804108
H       2.84504749     -1.60582708      0.17595847
H      -2.33892383     -1.02449307      0.83436271
H      -1.30129002     -3.20196251      0.86418657
H      -0.45020507     -2.19204502     -0.31070300
H       0.28250964     -2.53330868      1.25863072
H      -2.24885000     -2.20526594      2.95359724
H      -0.74194212     -1.43952232      3.40751482
H      -2.67932203     -0.37555618      4.50544351
H      -3.38883958      0.02456715      2.93485158
H      -1.86905935      0.78895414      3.45243032
