28
O=[N+](O)OCCCCCCO[N+](=O)O
O       5.12384912      0.93615288      0.50571821
N       3.93565172      1.38046647      1.13467411
O       3.95290649      2.66025359      1.71793889
O       2.75361469      0.58919791      1.19092564
C       2.96726428     -0.66041731      0.54600052
C       1.68808264     -1.49108711      0.62504635
C       0.52626845     -0.84163443     -0.13479884
C      -0.73260719     -1.70932497     -0.06524831
C      -1.89150990     -1.16410947     -0.90038903
C      -2.44200623      0.16675646     -0.39550081
O      -3.57112714      0.50575522     -1.19485685
N      -4.13165239      1.73874913     -0.75662115
O      -3.60358545      2.47577195      0.33063545
O      -5.25731835      2.27091169     -1.41136739
H       4.86944151      2.89342086      1.49790132
H       3.77425414     -1.20084838      1.05421361
H       3.24327299     -0.49992698     -0.50277879
H       1.88492637     -2.48889167      0.21617284
H       1.39987680     -1.61242431      1.67637950
H       0.81265691     -0.69312428     -1.18290381
H       0.32044940      0.14693517      0.28971366
H      -0.49397303     -2.71658653     -0.42869790
H      -1.05079321     -1.81779975      0.97874397
H      -1.58597140     -1.05978686     -1.94908219
H      -2.70339976     -1.90277388     -0.90462467
H      -1.68507642      0.95264976     -0.48856328
H      -2.74740152      0.06921208      0.65264671
H      -5.35609352      3.07250275     -0.87227050
