29
O=[N+]([O-])c1ccc(NS(=O)(=O)c2ccccc2)cc1
O       4.40942902      2.39421541      0.72125088
N       3.69460697      2.27304376     -0.28327821
O       3.65967487      3.07885144     -1.22406648
C       2.82493344      1.09228326     -0.36494834
C       2.84372167      0.14161645      0.66371848
C       2.00985023     -0.97728356      0.58173796
C       1.16484847     -1.14489045     -0.51727014
N       0.28798309     -2.25942305     -0.59844155
S      -0.95724532     -2.42396026      0.53402990
O      -1.83261526     -3.45552264      0.01857803
O      -0.38861841     -2.51386897      1.86154220
C      -1.81916992     -0.87371719      0.40103525
C      -1.55713129      0.14874409      1.31814641
C      -2.23894264      1.36008238      1.20685659
C      -3.18331193      1.53999138      0.19444861
C      -3.45563574      0.50879849     -0.70662619
C      -2.77737919     -0.70549900     -0.60373384
C       1.15193682     -0.19762489     -1.54408956
C       1.98109061      0.92573815     -1.47180419
H       3.49525931      0.25290540      1.52844275
H       2.03314677     -1.71834849      1.37880908
H       0.00448687     -2.58681887     -1.52060437
H      -0.82969296      0.01088503      2.11508329
H      -2.04106693      2.16271663      1.91364083
H      -3.71774173      2.48415982      0.11484561
H      -4.20429492      0.65092616     -1.48262571
H      -3.00523627     -1.51049459     -1.29852876
H       0.49247122     -0.31460328     -2.40040208
H       1.95464313      1.65709739     -2.27744647
