20
CCCC(C)C
C       2.79745592     -0.29335203     -0.09402911
C       1.34441636     -0.72709477     -0.21736858
C       0.39161151      0.45609232     -0.03088548
C      -1.08677507      0.09660162     -0.26859789
C      -1.60889528     -0.92723322      0.74041079
C      -1.94461431      1.36302983     -0.20939346
H       3.46188515     -1.15312370     -0.22553161
H       3.05121150      0.45099086     -0.85553457
H       2.99455697      0.14118172      0.89120250
H       1.14664649     -1.49871217      0.53402643
H       1.18767517     -1.18055542     -1.20278232
H       0.67845424      1.25139734     -0.73111377
H       0.51593615      0.86803638      0.97882815
H      -1.18780226     -0.33031312     -1.27447960
H      -1.09807917     -1.88881479      0.63348334
H      -1.46901007     -0.57803686      1.76901092
H      -2.67814705     -1.11101012      0.58887002
H      -1.61326987      2.09318529     -0.95536072
H      -1.88801614      1.83591143      0.77704253
H      -2.99524024      1.13181941     -0.41484634
