21
CCc1ccccc1C
C       2.34356406     -0.24180587     -1.01274272
C       1.61421879     -0.62339038      0.26709591
C       0.28922884      0.09331398      0.39792164
C       0.27605955      1.37133023      0.98487978
C      -0.91307952      2.08585750      1.12300246
C      -2.10758950      1.53468593      0.67420989
C      -2.11197469      0.27112501      0.08403746
C      -0.92158168     -0.45945292     -0.06869167
C      -0.98299013     -1.82170789     -0.70348786
H       2.55582756      0.83227241     -1.04393869
H       3.29652232     -0.77638287     -1.07804975
H       1.75290756     -0.49172533     -1.90007537
H       1.47236401     -1.70881297      0.30750456
H       2.24481504     -0.38112708      1.13196722
H       1.20233208      1.81835887      1.34012077
H      -0.90535446      3.07111332      1.58090587
H      -3.03695586      2.08717484      0.78205437
H      -3.05754783     -0.14264924     -0.26004507
H      -0.27203679     -1.89483899     -1.53196254
H      -1.97710588     -2.02893469     -1.11409237
H      -0.76162345     -2.59440386      0.03938613
