38
Cc1ccc2ccccc2c1NS(=O)(=O)c1ccc(N)cc1
C      -2.07655106     -0.18119054     -3.44618623
C      -2.05182453     -0.34945019     -1.95106841
C      -2.67100960     -1.48365386     -1.41330443
C      -2.71382182     -1.68734189     -0.03589350
C      -2.14636281     -0.76043883      0.84589082
C      -2.21294331     -0.98060542      2.23173043
C      -1.65514060     -0.07403278      3.13032182
C      -1.02814691      1.06826551      2.65427077
C      -0.95693649      1.30130585      1.27886697
C      -1.50266601      0.39384412      0.33700590
C      -1.44001392      0.56986681     -1.07795261
N      -0.71301454      1.67794605     -1.62314308
S       0.86565393      1.45786942     -2.18396395
O       0.88163708      0.48257522     -3.25220092
O       1.38940315      2.79294010     -2.39446298
C       1.74463839      0.75672950     -0.80757067
C       2.46430183      1.58818887      0.05351210
C       3.16659662      1.02680286      1.12324639
C       3.20234362     -0.35921376      1.30795225
N       3.80482156     -0.90031099      2.44923744
C       2.44854044     -1.17398014      0.45704236
C       1.74631412     -0.62709799     -0.61983048
H      -1.91050199      0.85631400     -3.75035912
H      -1.31950527     -0.81945455     -3.91106263
H      -3.05838230     -0.46510803     -3.84191893
H      -3.13443201     -2.21712052     -2.07078271
H      -3.20756423     -2.57989032      0.34398512
H      -2.70172570     -1.86964441      2.62543145
H      -1.70956398     -0.26229058      4.19925254
H      -0.58762766      1.77782217      3.34994896
H      -0.45604100      2.20847798      0.95370629
H      -0.84940141      2.58848824     -1.19070043
H       2.47706631      2.66588804     -0.08938007
H       3.69364771      1.68246113      1.81175312
H       4.05431650     -1.88013271      2.35567936
H       4.57022595     -0.34251318      2.81467824
H       2.40500725     -2.24728052      0.62358891
H       1.18866269     -1.28030927     -1.28732008
