37
CCCCCC1COCCC1OC(C)=O
C       4.63024936      1.70406565      0.77751834
C       3.32834050      0.91956087      0.83624417
C       3.25698459     -0.12573320     -0.27761940
C       2.01460359     -1.01894446     -0.19496949
C       0.70430242     -0.25368330     -0.41021789
C      -0.51978642     -1.17855785     -0.56129624
C      -0.82904040     -1.94887521      0.72748257
O      -1.96482910     -2.79704514      0.54797630
C      -3.14894021     -2.05925593      0.25526216
C      -2.99226710     -1.30189829     -1.05466606
C      -1.76756036     -0.38615995     -1.00634885
O      -1.99939212      0.68501306     -0.06504128
C      -2.68143471      1.76471550     -0.53655815
C      -2.82231343      2.79007133      0.54612712
O      -3.12287292      1.88962582     -1.66922262
H       5.49362234      1.04172105      0.89675405
H       4.72871364      2.22925863     -0.17790467
H       4.66049158      2.44847655      1.57932642
H       3.24786517      0.42960480      1.81338476
H       2.49257659      1.62246899      0.75314261
H       3.28829123      0.37134627     -1.25486972
H       4.14416496     -0.76898678     -0.22323942
H       2.00279313     -1.52421234      0.77724468
H       2.10485504     -1.80005992     -0.95971382
H       0.79802176      0.35738762     -1.31688318
H       0.54304727      0.43769557      0.42497729
H      -0.31252142     -1.91418907     -1.35105809
H       0.00678544     -2.60170252      0.99577799
H      -1.00518746     -1.27755077      1.57656827
H      -3.97400174     -2.77406819      0.17345477
H      -3.37905084     -1.38657264      1.08972014
H      -2.85853145     -2.02205929     -1.87099510
H      -3.90560204     -0.73152243     -1.25285500
H      -1.57645626      0.03430863     -2.00219590
H      -3.35716103      3.65992977      0.15426592
H      -1.83352042      3.11238053      0.88213799
H      -3.39523920      2.37344668      1.37828935
