25
O=C(Nc1ccccc1)c1cccnc1
O       0.20363382      1.96107436     -0.60497215
C       0.56973705      0.87967886     -0.16175502
N      -0.23667321     -0.17446700      0.22930541
C      -1.64204825     -0.25945124      0.12707420
C      -2.25548392     -1.39562757      0.67247436
C      -3.64190474     -1.55942474      0.60773666
C      -4.42888766     -0.58918803     -0.00579620
C      -3.82837421      0.54136603     -0.55402345
C      -2.44060442      0.70531227     -0.48913618
C       2.02537046      0.66021092      0.02104011
C       2.63502510     -0.59018496     -0.11469602
C       4.01234032     -0.70120623      0.07174787
C       4.73181075      0.44284020      0.38149731
N       4.17529841      1.66668349      0.50649960
C       2.83493713      1.75133660      0.31191080
H       0.20821054     -0.94732637      0.70559195
H      -1.66637980     -2.16864611      1.15824189
H      -4.10631204     -2.44347060      1.03670823
H      -5.50746323     -0.71198891     -0.05798926
H      -4.43718125      1.30235195     -1.03600559
H      -2.01551574      1.59916360     -0.93462581
H       2.06591508     -1.47138368     -0.39429083
H       4.51692580     -1.65578985     -0.03310336
H       5.80707932      0.40565589      0.53438913
H       2.42054469      2.75248113      0.40699001
