33
O=C(c1ccccc1)N(O)c1cccc2ccccc12
O       1.31657743     -2.07328266      1.21478456
C       1.39441917     -1.03980207      0.55051115
C       2.76415968     -0.58387249      0.20531023
C       3.14961491     -0.38555573     -1.12575390
C       4.45749430      0.00534988     -1.41761276
C       5.38069740      0.18193129     -0.38560554
C       5.00356878     -0.03934848      0.93973712
C       3.69747633     -0.43012132      1.23690151
N       0.32188890     -0.25205973      0.13943173
O       0.62844484      0.94506711     -0.54817748
C      -1.06511959     -0.59514523      0.22567342
C      -1.41888407     -1.95649551      0.20666966
C      -2.75007111     -2.35943548      0.16787880
C      -3.75952313     -1.40681205      0.14873734
C      -3.45812999     -0.04093166      0.20431143
C      -4.51181891      0.88916889      0.21652070
C      -4.26681419      2.25504381      0.32394714
C      -2.96233706      2.70642292      0.44004189
C      -1.90500259      1.79173341      0.42240997
C      -2.10549341      0.39371833      0.26762397
H       2.44228937     -0.54102842     -1.93483948
H       4.76007943      0.16617534     -2.44926395
H       6.39980326      0.48391178     -0.61522224
H       5.72797963      0.08609501      1.74050466
H       3.40691533     -0.61736942      2.26810894
H       0.10749033      0.84122118     -1.36565849
H      -0.66149124     -2.73629312      0.17833780
H      -2.99604183     -3.41796342      0.14009963
H      -4.79343714     -1.74458418      0.10997979
H      -5.54486766      0.55147909      0.15596495
H      -5.09421889      2.95911795      0.34045494
H      -2.75897006      3.76756437      0.55919383
H      -0.90667820      2.19610063      0.57246331
