20
CCC(=O)OOC(=O)CC
C       3.64197237      0.71690467      0.77536569
C       2.82387807     -0.24377731     -0.06954985
C       1.41771287     -0.40432517      0.45596929
O       0.96331518      0.14281881      1.45246147
O       0.73174359     -1.26519659     -0.36141610
O      -0.63789667     -1.34240945      0.15576868
C      -1.38696360     -0.45003905     -0.56696646
O      -0.97681077      0.23223090     -1.49708620
C      -2.79897650     -0.44813220     -0.03267935
C      -3.68708965      0.53669609     -0.77257008
H       3.18332409      1.71112186      0.79564960
H       3.71992965      0.36325021      1.80884003
H       4.65367363      0.81474962      0.36989639
H       3.30706157     -1.22643796     -0.07326003
H       2.76923034      0.13366753     -1.09612602
H      -3.21046200     -1.45758775     -0.13651267
H      -2.76755434     -0.18030927      1.02873174
H      -3.30096873      1.55763443     -0.68406591
H      -4.70162649      0.51760754     -0.36285155
H      -3.74349262      0.29153308     -1.83837094
