25
O=[N+]([O-])c1ccc(O)cc1-c1ccccc1
O      -0.49568847      2.85060975     -1.41475706
N      -0.44856929      2.41814227     -0.25524742
O       0.15347668      2.93766376      0.69332732
C      -1.20902100      1.21841058      0.02487783
C      -2.58925071      1.36439045      0.21949573
C      -3.35024017      0.23516353      0.50916015
C      -2.72971925     -1.00724915      0.59868249
O      -3.51669137     -2.08331682      0.88398589
C      -1.35445832     -1.14712789      0.40114263
C      -0.55827129     -0.02593702      0.10428381
C       0.88274440     -0.20131935     -0.11573018
C       1.42419139     -0.14960348     -1.40968954
C       2.79484148     -0.31975493     -1.61649399
C       3.64107227     -0.54599706     -0.53338788
C       3.11894398     -0.60206308      0.75683713
C       1.74840057     -0.43194701      0.96452836
H      -3.06614704      2.33903026      0.15014717
H      -4.42278331      0.31927526      0.66574829
H      -2.96636567     -2.88396586      0.90920831
H      -0.88875523     -2.12797116      0.46785875
H       0.78130322      0.02716259     -2.27047503
H       3.20175957     -0.27089979     -2.62345118
H       4.70858417     -0.67309555     -0.69448709
H       3.77954340     -0.77128726      1.60341257
H       1.36109999     -0.46831304      1.98102296
