31
CC(C)C(=O)OCCOc1ccccc1
C      -4.82047810      0.16883488     -1.16997862
C      -3.84729681      0.16426225      0.00577863
C      -3.57752633      1.58145099      0.49723362
C      -2.53913529     -0.49973343     -0.38214830
O      -2.12930109     -0.63564492     -1.52582468
O      -1.87476213     -0.90475470      0.73713413
C      -0.62201632     -1.56913941      0.50878323
C       0.50357760     -0.57059876      0.25001593
O       1.73618858     -1.28705672      0.19009187
C       2.87273746     -0.55337365     -0.01098773
C       2.93708442      0.82713559     -0.20534911
C       4.17319870      1.45194390     -0.40045945
C       5.34767490      0.70135122     -0.40289954
C       5.28884713     -0.67661042     -0.21135849
C       4.05468303     -1.29921726     -0.01697352
H      -4.43356756      0.75808539     -2.00884155
H      -5.78565015      0.59305586     -0.87420919
H      -4.99531290     -0.84943315     -1.53422145
H      -4.30016015     -0.42818709      0.81043302
H      -2.90776118      1.57589432      1.36398110
H      -4.50807963      2.07620667      0.79395815
H      -3.10032122      2.18741476     -0.28107778
H      -0.39707107     -2.15193482      1.40944834
H      -0.70452131     -2.30041170     -0.30518500
H       0.52331097      0.16336013      1.06533689
H       0.32076352     -0.04364315     -0.69355133
H       2.04725660      1.44716915     -0.21513820
H       4.21781639      2.52735923     -0.55304507
H       6.30644736      1.18967008     -0.55593957
H       6.20040890     -1.26797891     -0.21417299
H       4.01296567     -2.37547630      0.13067064
