17
CCC(Cl)CC
C       2.56035931      0.19485660     -0.22664084
C       1.24746064     -0.47534222      0.15841516
C       0.00849484      0.21406568     -0.43239755
Cl      0.02597979      0.10136558     -2.22137181
C      -1.27784530     -0.40953732      0.12958794
C      -2.54493645      0.32789125     -0.28492006
H       2.75650656      0.11843788     -1.29999384
H       3.39324076     -0.28656643      0.29613358
H       2.55544855      1.25390471      0.05011012
H       1.27767034     -1.52957645     -0.14356171
H       1.17405150     -0.46505115      1.25310348
H       0.03350059      1.28156477     -0.18610671
H      -1.35601573     -1.46094755     -0.17362654
H      -1.22899119     -0.40243236      1.22567206
H      -3.41346613     -0.10919231      0.21843555
H      -2.72026219      0.26114724     -1.36251267
H      -2.49119588      1.38541209     -0.00750468
