39
CNC(=O)NC(=O)C(C)(C(=O)OC)C1=CCCCC1
C       4.85458301     -2.41287091     -0.73900960
N       3.68433588     -1.60545602     -0.95957751
C       3.61503949     -0.32220057     -0.50092758
O       4.55872169      0.27635335      0.00656740
N       2.40010641      0.30023980     -0.64341583
C       1.15309725     -0.30632138     -0.68686557
O       1.03330986     -1.52538369     -0.85402567
C      -0.07901069      0.63980196     -0.68906348
C      -0.28353509      1.02946381     -2.16917535
C       0.13534443      1.95228565      0.07265532
O       1.20225252      2.28689165      0.57770159
O      -0.99330146      2.71854577      0.09700740
C      -0.85606008      3.95429322      0.80063207
C      -1.26236444     -0.10901290     -0.02840028
C      -2.38480529     -0.47933500     -0.68084789
C      -3.54646619     -1.18769555     -0.04230294
C      -3.49373315     -1.19160200      1.48291241
C      -2.08253652     -1.48059378      1.97318173
C      -1.09761072     -0.43219321      1.45116383
H       4.79260638     -3.29717486     -1.37715616
H       4.88175000     -2.71420041      0.31161386
H       5.75666667     -1.84240935     -0.97633224
H       2.78659110     -2.07877094     -1.04762416
H       2.43901927      1.23853054     -0.25075633
H      -0.37394726      0.14507757     -2.81102375
H      -1.17745161      1.64725886     -2.31316819
H       0.56850801      1.61088851     -2.54326241
H      -1.81919953      4.47090941      0.76866229
H      -0.10585887      4.58760525      0.31717363
H      -0.59484874      3.77171526      1.84764775
H      -2.50730808     -0.28389761     -1.74289905
H      -3.56429585     -2.21931402     -0.41393940
H      -4.48117941     -0.71534001     -0.36546818
H      -4.19228713     -1.93882053      1.87583103
H      -3.82102813     -0.21666005      1.86616885
H      -1.77306782     -2.47802785      1.63583251
H      -2.06002352     -1.49321174      3.06874465
H      -1.22869713      0.49312968      2.02591496
H      -0.08331522     -0.79249792      1.65583032
