15
O=c1ncc2[nH]c(=O)[nH]c2[nH]1
O      -3.47955240     -0.60021944     -0.04817922
C      -2.34089599     -0.14499291     -0.00531608
N      -2.08202116      1.20855394      0.13530324
C      -0.85007460      1.61132859      0.17228022
C       0.28702403      0.71347521      0.07348725
N       1.63173095      0.89936202      0.08728236
C       2.23563177     -0.36848527     -0.04799897
O       3.42363177     -0.62141807     -0.07948435
N       1.15849939     -1.27855597     -0.13874080
C      -0.00298994     -0.57692754     -0.06038909
N      -1.27215810     -1.01927615     -0.10135180
H      -0.62675126      2.68387098      0.28362896
H       2.14392725      1.76305103      0.17554886
H       1.27582740     -2.27351666     -0.24340314
H      -1.50182912     -1.99624976     -0.20266744
