25
O=S(=O)([O-])c1ccc(Nc2nc(Cl)nc(Cl)n2)cc1.[Na+]
O      -5.19939104      0.88640488      0.37429570
S      -4.58136378     -0.09115946     -0.51845291
O      -4.53589556      0.29926607     -1.92514781
O      -4.92231784     -1.48654386     -0.25989333
C      -2.84002996     -0.04058646     -0.02098205
C      -1.83535918     -0.19881695     -0.97430194
C      -0.49218532     -0.13358269     -0.58306522
C      -0.13701308      0.09553854      0.75293062
N       1.18605946      0.17301654      1.21119972
C       2.43095186      0.06245080      0.60147434
N       2.56047759     -0.16229222     -0.69755900
C       3.80833177     -0.24312440     -1.13532575
Cl      4.00168105     -0.53282332     -2.80787761
N       4.92077389     -0.12739699     -0.43695650
C       4.65608016      0.09315742      0.83466601
Cl      6.01061003      0.26474120      1.86325373
N       3.46905698      0.19897126      1.41883019
C      -1.17394514      0.26202331      1.69189349
C      -2.51750301      0.19874097      1.31298944
Na      0.00000000      0.00000000      0.00000000
H      -2.10123824     -0.37268860     -2.01407904
H       0.25763299     -0.26499007     -1.35528798
H       1.29527045      0.34003198      2.20110216
H      -0.94853919      0.44687514      2.73859073
H      -3.31214489      0.33278690      2.04253480
