25
CC(NC(=O)c1ccccc1)C(=O)O
C       3.08989918     -1.01713219     -1.08765821
C       2.37756758     -0.65900142      0.21523770
N       1.03360885     -0.14182827     -0.08694151
C       0.03803796     -0.10519444      0.86144052
O       0.28905756     -0.28603801      2.04951803
C      -1.34540043      0.17406670      0.39566825
C      -1.60501337      0.92192448     -0.76001783
C      -2.92404154      1.15823141     -1.15502191
C      -3.98250589      0.65723804     -0.39709839
C      -3.72795435     -0.07372779      0.76262715
C      -2.41198794     -0.31153296      1.16230450
C       3.25365340      0.30269443      1.04992019
O       4.44386773      0.50208267      0.83961826
O       2.63367708      0.84610977      2.12298614
H       4.07041121     -1.46472273     -0.89338378
H       3.24392594     -0.12873663     -1.71074792
H       2.50134018     -1.73481109     -1.66959387
H       2.25775420     -1.57145426      0.81260194
H       0.75213271     -0.16103080     -1.05881805
H      -0.80036796      1.35419625     -1.34754378
H      -3.12856271      1.74350104     -2.04870036
H      -5.00852435      0.84609497     -0.70477150
H      -4.55389802     -0.45464105      1.35865479
H      -2.22180157     -0.87804962      2.07191598
H       1.72512454      0.48176151      2.26054024
