20
CCOP(=S)([S-])OCC.[Na+]
C      -3.53747992      0.07065269     -0.92581298
C      -2.52747666      0.28029294      0.18502058
O      -1.22852898      0.11800830     -0.35595460
P       0.02936911     -0.10405734      0.65090292
S       0.20216871      1.32115335      1.97029304
S      -0.06605408     -1.80343322      1.60216112
O       1.21503322     -0.07018355     -0.46194726
C       2.54599537     -0.34589397     -0.06347714
C       3.48084918      0.12998752     -1.15782184
Na      0.00000000      0.00000000      0.00000000
H      -3.43918263     -0.93364704     -1.35109366
H      -4.55814683      0.19837964     -0.55451243
H      -3.36688816      0.78055450     -1.74195425
H      -2.62869777      1.29336306      0.58554358
H      -2.71123673     -0.43861342      0.98820599
H       2.78905413      0.16292422      0.87339425
H       2.66565201     -1.42428290      0.07700390
H       3.25013010     -0.36689637     -2.10599062
H       3.36237815      1.20576769     -1.32457369
H       4.52306177     -0.07407609     -0.89688166
