20
c1ccc(-c2cccnc2)nc1
C       3.40262683     -0.37867589     -0.19556194
C       2.79568066      0.77574156     -0.66510250
C       1.40892217      0.90868448     -0.57547421
C       0.64861913     -0.12006672     -0.01504938
C      -0.82532630     -0.07922215      0.12683518
C      -1.62565550      0.99858301     -0.28617360
C      -3.01295211      0.97019881     -0.12160229
C      -3.58538061     -0.14539051      0.45875895
N      -2.87451605     -1.20862392      0.87475773
C      -1.52659957     -1.14716669      0.69913139
N       1.24860118     -1.25038165      0.44408062
C       2.59278231     -1.35644547      0.34661695
H       4.47670137     -0.51324172     -0.25030813
H       3.39390748      1.57173125     -1.09981451
H       0.95482420      1.81880429     -0.94831578
H      -1.19383508      1.88287163     -0.74382229
H      -3.62969960      1.80292505     -0.44087489
H      -4.65861053     -0.21511837      0.60825446
H      -1.00178781     -2.03293821      1.05307321
H       3.01169783     -2.28226877      0.73059102
