22
Clc1cc(-c2ccccc2)c(Cl)c(Cl)c1Cl
Cl     -3.57612576     -2.69061711     -0.35439285
C      -2.80198324     -1.14833134     -0.22681289
C      -1.40772720     -1.14472216     -0.14404881
C      -0.68884991      0.05678830     -0.03779627
C       0.77670576     -0.01366436      0.04527609
C       1.56180760      0.00694556     -1.11790498
C       2.95388157     -0.07173005     -1.03895489
C       3.57749585     -0.17440520      0.20265632
C       2.81146962     -0.19837541      1.36612605
C       1.41931733     -0.11977232      1.28849480
C      -1.40594928      1.27217780     -0.01586082
Cl     -0.52802166      2.77132771      0.11555151
C      -2.81452622      1.27358637     -0.09920830
Cl     -3.68744549      2.78157237     -0.07099813
C      -3.51512400      0.05744724     -0.20514640
Cl     -5.25114633      0.03742198     -0.30901810
H      -0.86612674     -2.09108346     -0.16211980
H       1.09321605      0.09001889     -2.09637172
H       3.55152249     -0.04984148     -1.94676868
H       4.66131641     -0.23276373      0.26376068
H       3.29797117     -0.27531547      2.33523755
H       0.83832198     -0.13666412      2.20829963
