16
O=c1[nH]c2ccccc2[nH]1
O       3.63045470      0.41274968      0.17408545
C       2.42177188      0.27533354      0.11612775
N       1.47437737      1.28378329     -0.11199961
C       0.20580249      0.71484733     -0.10331062
C      -1.02353990      1.30290390     -0.28139178
C      -2.13769308      0.45832288     -0.21730624
C      -1.99145294     -0.92776934      0.01930747
C      -0.72760829     -1.50199363      0.19742120
C       0.34997626     -0.65166026      0.12996142
N       1.70710723     -0.92207719      0.26455731
H       1.70951559      2.25176742     -0.25479376
H      -1.13189381      2.36499305     -0.46245037
H      -3.13488426      0.87319318     -0.35158677
H      -2.87850052     -1.55686053      0.06323617
H      -0.61193787     -2.56325112      0.37882968
H       2.13850516     -1.81428221      0.43931269
