33
c1ccc2sc(SNC3CCCCC3)nc2c1
C       4.80012446      0.97396623      1.79522691
C       5.57278390     -0.15664906      1.54941409
C       5.14231111     -1.13841739      0.65156360
C       3.90913924     -0.95278237      0.00477650
S       3.11819414     -1.96840900     -1.13956449
C       1.82452916     -0.85500966     -1.22263679
S       0.42106586     -1.11467709     -2.26161875
N      -0.56799512      0.12945848     -1.74072014
C      -1.60538254     -0.11096520     -0.72503583
C      -2.77299227     -0.92960742     -1.30032189
C      -3.89594972     -1.10211679     -0.27857528
C      -4.38330886      0.24013402      0.25649510
C      -3.23403957      1.06773334      0.82173449
C      -2.11211347      1.24333420     -0.19958673
N       1.92724577      0.22132718     -0.47264023
C       3.11611684      0.17432758      0.23584360
C       3.57371581      1.14908999      1.14570376
H       5.14957249      1.72867365      2.49619583
H       6.52519054     -0.28001026      2.06137740
H       5.74700219     -2.01994279      0.46060510
H       0.03959546      0.88190763     -1.39835614
H      -1.16619815     -0.65509016      0.12254488
H      -3.17461289     -0.43413026     -2.19417234
H      -2.43101774     -1.92282530     -1.61432645
H      -3.53848787     -1.71978449      0.55456045
H      -4.73238013     -1.64020996     -0.73876829
H      -5.13754987      0.07584081      1.03422504
H      -4.87278261      0.79874123     -0.55079739
H      -3.60601506      2.05048777      1.13269517
H      -2.83696436      0.57766502      1.71923269
H      -1.28956513      1.79919503      0.26770358
H      -2.47855231      1.85807016     -1.03256457
H       2.96932069      2.03067490      1.33537459
