27
COP(=O)(OC)OC1=C(Cl)CC2C=CC12
C       2.18142885      2.80434535      0.19624104
O       1.32622621      1.77900190      0.65705629
P       1.65350190      0.28648384      0.13992338
O       1.80281388      0.15415904     -1.34433350
O       2.97591550     -0.10018944      0.97895119
C       3.51132137     -1.38704029      0.74734858
O       0.50388776     -0.61484822      0.82109844
C      -0.83227709     -0.57127026      0.53493318
C      -1.78763023     -1.29503328      1.12487729
Cl     -1.55040064     -2.44298700      2.35907119
C      -3.16750963     -1.02133764      0.61270879
C      -2.94792125      0.04183411     -0.47864902
C      -2.75246542     -0.44085196     -1.90774570
C      -1.42724324     -0.20294691     -1.90264002
C      -1.41332892      0.33155820     -0.48457685
H       1.88442921      3.74590752      0.66484500
H       2.09331507      2.90705262     -0.88862176
H       3.21820966      2.58691984      0.46663839
H       3.83447062     -1.47831639     -0.29307318
H       2.76729247     -2.15520337      0.97472987
H       4.37657076     -1.52961144      1.39953338
H      -3.64130091     -1.92329411      0.21116416
H      -3.79593761     -0.61844599      1.41456585
H      -3.58489406      0.92629072     -0.35919207
H      -3.43927753     -0.83785935     -2.65021191
H      -0.63654563     -0.33129379     -2.63865485
H      -1.15265111      1.38697629     -0.35598716
