35
CCC(CC)(S(=O)(=O)CC)S(=O)(=O)CC
C       0.54898021      1.30196425     -2.49208843
C       0.02893993      1.81603955     -1.15751319
C      -0.20339014      0.80004637      0.00317909
C      -0.77069639      1.60228918      1.23371281
C       0.06689037      2.76958876      1.74935464
S      -1.47527479     -0.41693964     -0.47652985
O      -0.94145043     -1.27789677     -1.51472042
O      -2.69867552      0.32038254     -0.74603670
C      -1.80674043     -1.45935346      0.94561755
C      -2.89007966     -2.47833723      0.63707593
S       1.33162435     -0.02901980      0.51335821
O       1.09649197     -0.60070551      1.82959823
O       2.41237077      0.93003895      0.35298101
C       1.70807729     -1.41117282     -0.56697305
C       3.10550985     -1.94819044     -0.30557027
H      -0.10478265      0.55110971     -2.93802631
H       1.56038784      0.90059931     -2.40393938
H       0.60448887      2.13457577     -3.20278042
H      -0.91441169      2.34125441     -1.35729990
H       0.73983590      2.58585599     -0.83678149
H      -0.92978797      0.92832339      2.08169474
H      -1.76161787      2.00125640      0.98203507
H       1.06973301      2.45567233      2.04799979
H       0.15090000      3.57092173      1.01075808
H      -0.41466298      3.20092962      2.63394127
H      -2.13042199     -0.82572853      1.77284339
H      -0.88819273     -1.98202566      1.21336993
H      -3.82851771     -1.98673310      0.36172700
H      -3.07900159     -3.10776267      1.51206532
H      -2.59616062     -3.12808236     -0.19340084
H       1.63191082     -1.09030175     -1.60437963
H       0.98661108     -2.20507575     -0.36317261
H       3.30363670     -2.81521044     -0.94320799
H       3.86690152     -1.19085450     -0.51710565
H       3.22057466     -2.25745785      0.73821405
