18
O=C1CCCCCO1
O       1.57730860      2.47457244     -0.89188103
C       0.88315156      1.63024486     -0.33321574
C       1.48121472      0.37555238      0.24629181
C       1.01226244     -0.87427818     -0.48459976
C      -0.32962776     -1.39388643      0.02134279
C      -1.48939321     -0.42108607     -0.17395715
C      -1.28313194      0.90467092      0.54398029
O      -0.45331030      1.79499851     -0.22045144
H       2.56816555      0.46052670      0.11727263
H       1.31188354      0.33285247      1.32655518
H       1.75693352     -1.66577024     -0.33566061
H       0.95488401     -0.69085358     -1.56447647
H      -0.24416028     -1.65030543      1.08478891
H      -0.56480126     -2.32755665     -0.50401719
H      -1.64157852     -0.24806161     -1.24591542
H      -2.39661462     -0.89738758      0.21608522
H      -2.25115211      1.40900528      0.63753688
H      -0.89203392      0.78676221      1.56032110
