22
CC(=O)[O-].CC(=O)[O-].CC(=O)[O-].[Y+3]
C      -0.64964824     -0.05340447     -0.10161368
C       0.81511777      0.02371260      0.11103854
O       1.47859433     -0.99321778      0.42412347
O       1.51251897      1.21278479     -0.02518474
C      -0.66557199      0.02452392     -0.00326181
C       0.81142861     -0.00879783     -0.00702982
O       1.49139988     -1.07039287      0.01277612
O       1.54710346      1.17347132     -0.03359096
C      -0.66922716     -0.01174312      0.06719652
C       0.80593945     -0.11033487     -0.08762945
O       1.44713366     -1.16263349     -0.21787414
O       1.48801754      1.09993919     -0.08091139
Y       0.00000000      0.00000000      0.00000000
H      -0.97025354     -1.04788073     -0.48722780
H      -0.97885816      0.77393101     -0.77632004
H      -1.20747114      0.08407458      0.85518424
H      -1.09311731      0.57484225     -0.84745526
H      -1.00704719     -1.04110641     -0.10943490
H      -1.08419546      0.34745962      0.98799663
H      -1.17191881     -0.94907342     -0.16271782
H      -0.90718723      0.32181164      1.10851284
H      -0.99275746      0.81203407     -0.62657657
