18
N#Cc1ccc(C(F)(F)F)cc1[N+](=O)[O-]
N      -3.68537038      1.99313036      0.29696681
C      -2.64355172      1.49649231      0.18593344
C      -1.33707713      0.91491543      0.08206697
C      -0.21566563      1.75091805      0.16839818
C       1.07891251      1.21733775      0.11218475
C       1.28411365     -0.16483296     -0.03344778
C       2.68470135     -0.73695395     -0.06457621
F       2.77261652     -1.87114524     -0.81071674
F       3.13133971     -1.06283613      1.17709275
F       3.59867899      0.12672445     -0.58368039
C       0.16539307     -1.00832174     -0.11251058
C      -1.12633334     -0.45891626     -0.06306406
N      -2.25188340     -1.36858232     -0.17086435
O      -3.05182946     -1.16685926     -1.09085167
O      -2.30063779     -2.29419722      0.64791612
H      -0.33924253      2.82794349      0.28837638
H       1.93421138      1.89103070      0.18652311
H       0.30162419     -2.08584746     -0.21574672
