22
Clc1ccccc1-c1ccc(Cl)c(Cl)c1Cl
Cl     -0.56275196     -2.63786818     -0.91474958
C      -1.43708686     -1.23500455     -0.40140382
C      -2.83378096     -1.30794817     -0.39236443
C      -3.59002233     -0.20617084      0.00489578
C      -2.95260888      0.96945722      0.39243154
C      -1.55771339      1.04493694      0.38405234
C      -0.77463386     -0.05564902     -0.01034344
C       0.69430605      0.06629364     -0.00608387
C       1.33058383      0.54365888     -1.16483407
C       2.71749532      0.67141322     -1.21914361
C       3.49711610      0.32592197     -0.11397899
Cl      5.20985428      0.51907244     -0.27105721
C       2.89265100     -0.15058136      1.05881277
Cl      3.87364436     -0.57154915      2.43162677
C       1.49025155     -0.27907013      1.11102377
Cl      0.71191637     -0.86006965      2.55812062
H      -3.33796789     -2.22318473     -0.69269759
H      -4.67567626     -0.26630300      0.01424444
H      -3.54079252      1.82891383      0.70606137
H      -1.07985881      1.97210624      0.69645580
H       0.74023771      0.81244748     -2.04062800
H       3.18483716      1.03917692     -2.13044060
