43
O=C(O)CN(CC(=O)O)Cc1cc2c(c(O)c1O)C(=O)c1ccccc1C2=O
O      -2.26496074      2.65046792     -0.35154903
C      -2.49660358      1.59675847      0.22155955
O      -1.94188937      1.27029930      1.41826678
C      -3.48640170      0.53686837     -0.26267555
N      -3.11196389     -0.79465039      0.30957966
C      -4.33233070     -1.56119996      0.67454685
C      -5.00012536     -1.00505475      1.92945413
O      -6.15974008     -1.19478847      2.25967403
O      -4.17478015     -0.28531408      2.72235141
C      -2.31726466     -1.57589129     -0.66813414
C      -0.94132698     -0.99672944     -0.90082106
C       0.02549139     -1.05526892      0.11785859
C       1.28898699     -0.46649600     -0.05281718
C       1.60692152      0.17966773     -1.24663239
C       0.65826409      0.22245159     -2.27233563
O       0.88015753      0.82427429     -3.48783609
C      -0.59884907     -0.35989859     -2.09419527
O      -1.50714858     -0.27830000     -3.11456962
C       2.92913261      0.80813424     -1.41742940
O       3.20671341      1.34506757     -2.48666520
C       3.89743582      0.78166235     -0.30533178
C       5.14058170      1.41016691     -0.45153432
C       6.06208568      1.38396266      0.59685468
C       5.74707942      0.73015955      1.78788822
C       4.50856748      0.10289872      1.93455815
C       3.58125048      0.12983548      0.88540540
C       2.27479980     -0.53940237      1.04534331
O       2.01444429     -1.15663405      2.07149840
H      -2.28915383      0.37671601      1.66330617
H      -4.46673030      0.86899258      0.09874728
H      -3.52206619      0.52677024     -1.35680261
H      -4.06908768     -2.59656101      0.92052363
H      -5.05576653     -1.56229813     -0.14842776
H      -4.73523688     -0.03046656      3.48702936
H      -2.15889417     -2.59197816     -0.28061252
H      -2.86691568     -1.70675756     -1.60876180
H      -0.21725107     -1.54323951      1.06210009
H       1.78754247      1.21071014     -3.46741137
H      -1.05267356      0.24385181     -3.81007758
H       5.39454841      1.92303624     -1.37742456
H       7.02660115      1.87442536      0.48411809
H       6.46574032      0.70969923      2.60444653
H       4.27081622     -0.40594753      2.86693452
