57
COCCC(=O)N[C@H](C)c1ccc(Nc2ncc3cc(-c4ccncc4)ccc3n2)cc1
C     -10.08338876      2.23277988     -0.62883777
O      -8.81603709      1.95697675     -0.04535024
C      -8.29735553      0.70236547     -0.49495814
C      -6.95494174      0.47307271      0.17797922
C      -6.32804765     -0.82693753     -0.26697273
O      -6.84559748     -1.58687653     -1.07753211
N      -5.11196281     -1.06678953      0.33030338
C      -4.31910911     -2.24853595      0.03535449
C      -4.89447756     -3.48820366      0.72759281
C      -2.86865646     -1.97039818      0.38841894
C      -2.00467773     -1.47518725     -0.59748011
C      -0.66864601     -1.17177211     -0.30324293
C      -0.14925002     -1.35076714      0.98024982
N       1.16613744     -1.04649510      1.34240152
C       2.25834070     -0.51078597      0.66619241
N       2.16762510     -0.07301107     -0.59681651
C       3.28319934      0.43254877     -1.15357511
C       4.49813077      0.52248158     -0.49947799
C       5.66840221      1.05265635     -1.08416995
C       6.86505942      1.11911023     -0.35830272
C       8.08867348      1.67106411     -0.95675610
C       8.60395787      1.15838285     -2.15272680
C       9.76164379      1.71101994     -2.67801846
N      10.43264574      2.73064678     -2.10565520
C       9.92663928      3.21562321     -0.95342301
C       8.77866384      2.72660777     -0.34956569
C       6.85222786      0.64129982      0.95891001
C       5.68122923      0.11586934      1.52334553
C       4.49272683      0.04697311      0.81026380
N       3.39353508     -0.46052518      1.38564506
C      -1.02473102     -1.82422604      1.96927013
C      -2.36215425     -2.12768016      1.68388705
H     -10.42386623      3.20798014     -0.26959396
H     -10.81336724      1.47549755     -0.32902877
H     -10.00320241      2.27100331     -1.71933836
H      -8.99911220     -0.09920481     -0.23403233
H      -8.18142181      0.72599202     -1.58544251
H      -6.27344165      1.29885998     -0.05908716
H      -7.07971353      0.45989395      1.26708971
H      -4.74118396     -0.39793675      0.99307490
H      -4.38612616     -2.43154536     -1.04543230
H      -5.89569656     -3.71892427      0.34570219
H      -4.26054806     -4.36494489      0.55583660
H      -4.99572967     -3.34327320      1.80883916
H      -2.36517984     -1.31256767     -1.61223891
H      -0.04736240     -0.79287982     -1.10929425
H       1.45981267     -1.31585536      2.26959633
H       3.16123028      0.77642816     -2.17746585
H       5.63478283      1.42761204     -2.10651720
H       8.12440625      0.33107543     -2.66589669
H      10.19315715      1.33297512     -3.59998761
H      10.48396975      4.03717423     -0.51218699
H       8.42662955      3.17409747      0.57489245
H       7.75886269      0.66248441      1.56147139
H       5.70275449     -0.25020281      2.54728243
H      -0.67298792     -1.95654069      2.98988683
H      -2.99647077     -2.47848540      2.49379770
