32
CCC=C(C)C1(CC)C(=O)NC(=O)NC1=O
C       3.99383715      0.72506740     -0.53127997
C       2.80910018      0.86531457     -1.47311081
C       1.50781430      0.90768074     -0.71724371
C       0.61078059     -0.09076495     -0.54794087
C       0.86779107     -1.48404364     -1.09060184
C      -0.73825064      0.09056040      0.21563544
C      -1.03325502      1.54853455      0.68166605
C      -2.36864639      1.72819773      1.40493523
C      -0.65822070     -0.77652569      1.47199375
O       0.13274957     -0.56699636      2.39248300
N      -1.51572685     -1.83738847      1.55841457
C      -2.46450951     -2.19514285      0.65668469
O      -3.21024399     -3.14833383      0.85363834
N      -2.55850195     -1.44041654     -0.46704754
C      -1.85040953     -0.30749849     -0.75486364
O      -2.12563847      0.33132448     -1.77121317
H       3.94412879     -0.21443873      0.02942417
H       4.93024266      0.73137379     -1.09824020
H       4.02929651      1.55027419      0.18807329
H       2.82697443      0.06565701     -2.21938092
H       2.90661920      1.79952182     -2.03954697
H       1.31023938      1.89073567     -0.29425321
H       0.24073540     -1.67442196     -1.96714756
H       1.90809221     -1.64748092     -1.38241019
H       0.65047021     -2.24696640     -0.33714758
H      -0.24536908      1.89457118      1.36347025
H      -1.02959954      2.22816867     -0.18068280
H      -3.21503548      1.46736451      0.76291078
H      -2.49021417      2.77530506      1.70162035
H      -2.42125707      1.11970537      2.31250683
H      -1.45358989     -2.39886490      2.39641233
H      -3.29040335     -1.69007342     -1.11775810
