11
C=C/C=C\C#N
C      -2.05497656     -0.19866047     -0.42718381
C      -0.82750755      0.22966321     -0.10946014
C       0.32164225     -0.64769238     -0.07027373
C       1.57918668     -0.29442050      0.23795300
C       1.99384120      1.02074561      0.58175627
N       2.34195916      2.09065413      0.86347805
H      -2.26579478     -1.23387577     -0.67603489
H      -2.89077674      0.49489552     -0.44448495
H      -0.69175216      1.28357583      0.12903063
H       0.13800695     -1.69325448     -0.31609658
H       2.35617156     -1.05163069      0.23131615
