46
CCCCCCCCCC1(CC)C(=O)NC(=O)NC1=O
C       7.41194904     -0.20357898      0.39243041
C       5.97542044     -0.60879987      0.68168335
C       4.99331852      0.11313853     -0.24066987
C       3.54855733     -0.29788916      0.05324735
C       2.56775593      0.42954571     -0.86921294
C       1.11565753     -0.03123964     -0.70360756
C       0.51076827      0.34437572      0.65179436
C      -0.93909021     -0.12698172      0.82460965
C      -1.92796590      0.59663052     -0.10772342
C      -3.41829136      0.24384688      0.13656021
C      -4.35069363      1.07773078     -0.79489325
C      -4.06548443      0.96445935     -2.28859024
C      -3.83521247      0.61650150      1.55491105
O      -3.31367109      1.51680327      2.20854417
N      -4.90395026     -0.06863098      2.06468472
C      -5.27248315     -1.31706118      1.67204612
O      -5.93646684     -2.04699677      2.40048432
N      -4.79902797     -1.75168940      0.47441745
C      -3.68644592     -1.23210612     -0.12650727
O      -3.00048159     -1.93466170     -0.86460664
H       7.55347940      0.87185684      0.53988260
H       7.68890499     -0.44883949     -0.63784967
H       8.09705283     -0.73146384      1.06316203
H       5.87553255     -1.69325263      0.55645941
H       5.74108434     -0.37992753      1.72782092
H       5.09946150      1.19750722     -0.11424913
H       5.23564975     -0.11573732     -1.28563444
H       3.31951091     -0.07180786      1.10038496
H       3.44185630     -1.38147339     -0.07737647
H       2.86291832      0.25422604     -1.91136945
H       2.63223829      1.51146832     -0.70110120
H       1.05486288     -1.11631864     -0.85014525
H       0.53063615      0.43061214     -1.50660454
H       1.10180929     -0.11031347      1.45460998
H       0.56424141      1.43026507      0.79512665
H      -1.21780623      0.04369135      1.87000613
H      -0.98517094     -1.20971615      0.66339384
H      -1.66200478      0.34831560     -1.14082813
H      -1.78760073      1.67990908      0.00254281
H      -4.28769292      2.13859531     -0.51683709
H      -5.39837540      0.79061579     -0.63270261
H      -3.08800301      1.38213227     -2.54552143
H      -4.81690638      1.52800849     -2.85186535
H      -4.10511584     -0.07348654     -2.63063845
H      -5.16382923      0.17590069      3.01106132
H      -4.96089568     -2.73416413      0.29543135
