25
CCC(C)c1ccccc1O
C      -2.33304765     -0.88869948      0.89555596
C      -2.02447707     -0.42104749     -0.52163819
C      -0.92774639      0.66322117     -0.57487504
C      -0.80196797      1.22316126     -1.99792739
C       0.42284498      0.16808394     -0.07558228
C       1.07502042     -0.90288590     -0.71232724
C       2.31333703     -1.36364470     -0.25960565
C       2.92248386     -0.76151348      0.83764133
C       2.29465293      0.30199163      1.48330520
C       1.05640415      0.75901468      1.02677761
O       0.44693629      1.80217382      1.66710701
H      -1.47489033     -1.39380261      1.34889475
H      -2.61548928     -0.04559274      1.53402034
H      -3.16736971     -1.59739128      0.88306615
H      -2.94826289     -0.01527413     -0.95323771
H      -1.75136176     -1.28864162     -1.13387866
H      -1.26960677      1.49551826      0.05263614
H      -0.03302952      2.00242057     -2.04595967
H      -0.53722474      0.44604949     -2.72313648
H      -1.74906488      1.66891975     -2.32106324
H       0.62059507     -1.39013507     -1.57197636
H       2.80052803     -2.19310572     -0.76570946
H       3.88593748     -1.12067118      1.18922222
H       2.78264505      0.76087920      2.33740212
H       1.01215367      2.09097163      2.40128856
