42
CC12CCC3c4ccc(O)cc4CCC3C1CCC2=O
C      -2.83747163     -1.61974024     -1.00752933
C      -2.50673509     -0.19649897     -0.55714257
C      -1.69608247      0.56373263     -1.61779385
C      -0.21033654      0.20494772     -1.62608087
C       0.43317555      0.41197501     -0.24100817
C       1.94015946      0.16215056     -0.19957739
C       2.77213107      0.59783075     -1.24820048
C       4.15601450      0.40586162     -1.20846586
C       4.72683104     -0.21183244     -0.10680312
O       6.07054258     -0.42502810     -0.02496597
C       3.93759166     -0.62564743      0.95649571
C       2.54633876     -0.42720130      0.93133375
C       1.74611251     -0.90345782      2.11818788
C       0.33508677     -0.32729205      2.16386693
C      -0.32334359     -0.46255418      0.78866915
C      -1.83581330     -0.18039143      0.83641177
C      -2.24718531      1.17167654      1.43353646
C      -3.71688902      1.31417867      1.05437462
C      -3.78055325      0.58907162     -0.26656551
O      -4.75062868      0.63481526     -1.01337627
H      -3.49473539     -2.12094321     -0.28762978
H      -3.36332298     -1.61732327     -1.96906994
H      -1.93526600     -2.22898127     -1.11990307
H      -2.11677449      0.38148114     -2.61515737
H      -1.78692974      1.64726989     -1.46032206
H       0.26918148      0.83433964     -2.38292111
H      -0.07393710     -0.83280224     -1.95527322
H       0.31093736      1.46866130      0.03461784
H       2.35927978      1.10669937     -2.11489377
H       4.76280380      0.74900001     -2.04011559
H       6.48527308     -0.09156964     -0.83714157
H       4.41045620     -1.10107736      1.81256865
H       2.26305241     -0.63706598      3.04804775
H       1.69019413     -1.99849815      2.07351569
H       0.37681819      0.72759322      2.46366568
H      -0.24478069     -0.85742144      2.92846118
H      -0.21484672     -1.51365747      0.47913128
H      -2.29746485     -0.95776512      1.46476207
H      -2.11550874      1.20451236      2.51962137
H      -1.67037304      1.99763935      1.00350891
H      -4.00788161      2.36113240      0.94593915
H      -4.36512012      0.80218007      1.77121820
