29
Nc1ccc(S(=O)(=O)Nc2ccc(Cl)c(Cl)c2)cc1
N      -3.59978181      2.09254122      0.71541840
C      -2.85254859      1.03850691      0.18046072
C      -2.18147837      0.15166748      1.02884622
C      -1.33226693     -0.82917398      0.51103678
C      -1.10896218     -0.88460942     -0.86594240
S      -0.01686952     -2.11560870     -1.53910762
O      -0.46494654     -2.40734423     -2.88434332
O       0.14440555     -3.16383259     -0.55487534
N       1.44071428     -1.27183076     -1.70287111
C       2.00124160     -0.62050720     -0.57022233
C       2.44943940     -1.35752120      0.52525883
C       2.96596318     -0.70188406      1.64513303
C       3.03461397      0.69361229      1.67173582
Cl      3.68079125      1.44068735      3.08805839
C       2.58613706      1.43136963      0.56992917
Cl      2.63818856      3.15825427      0.52966260
C       2.07022046      0.77260544     -0.55162649
C      -1.74095132      0.01667922     -1.72496513
C      -2.58972129      0.99034775     -1.19269604
H      -4.28697641      2.48096342      0.07672753
H      -3.99488764      1.89826509      1.63057713
H      -2.31980005      0.21578641      2.10550348
H      -0.84104684     -1.52603530      1.18624088
H       1.50969961     -0.81247383     -2.61013034
H       2.40861392     -2.44517518      0.51573524
H       3.31366733     -1.28781338      2.49312732
H       1.71336517      1.35272391     -1.39826138
H      -1.57493186     -0.02265227     -2.79879761
H      -3.05189199      1.71245172     -1.86156386
