79
CCCCCCCC(=O)O.CCCCCCCCCC(=O)O.OCC(CO)(CO)CO
C       4.12193894      0.33236865      1.33364427
C       2.89384059      0.66187092      0.50006961
C       1.77496584     -0.35426562      0.72707817
C       0.53330707     -0.01040082     -0.09889287
C      -0.58378222     -1.03091239      0.13118003
C      -1.82220595     -0.77897701     -0.73189227
C      -2.57201203      0.49461584     -0.35418526
C      -3.81365865      0.65759944     -1.18324665
O      -4.00092037      1.50401106     -2.04123802
O      -4.76710713     -0.24629558     -0.88869083
C      -4.71005905      0.14347360     -1.59411504
C      -3.73408913     -0.67923448     -0.76874436
C      -2.49946254      0.13707936     -0.38301153
C      -1.50819960     -0.70573789      0.42174197
C      -0.30093135      0.08693003      0.93426014
C       0.59541396      0.62119550     -0.18553844
C       1.83065987      1.37086817      0.32554182
C       2.80363946      0.55819828      1.18931944
C       3.33818924     -0.71478066      0.53533163
C       4.17706159     -0.43226146     -0.68132193
O       4.88500816      0.54071720     -0.87728837
O       4.11226947     -1.42609537     -1.58781093
O       1.43314692      1.19538253     -1.32005565
C       0.35362355      1.34345570     -0.39697099
C      -0.00269564     -0.00239626      0.26479971
C       1.24222606     -0.54795492      0.99218642
O       0.96582904     -1.79998889      1.62177885
C      -0.44834781     -1.02484849     -0.79931258
O      -1.60565365     -0.56733115     -1.49971424
C      -1.15679643      0.21918093      1.26225863
O      -0.79608466      1.17216261      2.26240064
H       4.52215396     -0.65166977      1.06999947
H       4.90648100      1.07544031      1.16330037
H       3.88221568      0.33130800      2.40158303
H       3.17139622      0.67713035     -0.56058875
H       2.54297886      1.66773283      0.76009312
H       1.51110260     -0.37916080      1.79126486
H       2.12971611     -1.35715313      0.45860336
H       0.79509807      0.01335677     -1.16376937
H       0.18853015      0.99310364      0.17468629
H      -0.86876932     -1.03821412      1.19045063
H      -0.20303021     -2.03324070     -0.10128535
H      -1.53881093     -0.74453095     -1.79153163
H      -2.49408499     -1.63996249     -0.62452868
H      -2.85687147      0.49580524      0.70404077
H      -1.94861799      1.38003461     -0.51983832
H      -5.50385383     -0.01959427     -1.49463040
H      -5.58298406     -0.46002124     -1.86071226
H      -4.24330820      0.49218338     -2.52099137
H      -5.05851298      1.01710760     -1.03406683
H      -4.24065230     -1.03897760      0.13436946
H      -3.43161742     -1.56165329     -1.34460514
H      -2.80627771      1.00959279      0.20634351
H      -2.02058276      0.51147677     -1.29456710
H      -1.15960450     -1.54886741     -0.18732686
H      -2.02550944     -1.13589164      1.28829332
H      -0.64508874      0.91902090      1.56045891
H       0.27747897     -0.58014467      1.58311945
H       0.89810493     -0.19827015     -0.84663902
H       0.02368901      1.32095280     -0.80597443
H       2.36935836      1.77371932     -0.54063874
H       1.50091511      2.24194063      0.90606546
H       3.64554414      1.20924823      1.45751173
H       2.31667085      0.29187979      2.13464341
H       3.97210547     -1.25474167      1.24718383
H       2.51091078     -1.37805972      0.26541088
H       4.70986042     -1.13084712     -2.30691518
H       1.55163636      2.06251366     -1.74576999
H      -0.50344297      1.75684756     -0.94064256
H       0.66423283      2.08294884      0.35061641
H       1.58882557      0.14978936      1.76207597
H       2.06885364     -0.71341227      0.29217263
H       1.77093842     -2.04452969      2.11152033
H       0.34535618     -1.20323534     -1.53345627
H      -0.70481340     -1.98686596     -0.34207228
H      -1.74610150     -1.18698359     -2.23671350
H      -2.05040056      0.60176044      0.75654727
H      -1.43041440     -0.71500431      1.76529334
H      -1.53991753      1.20850925      2.88926351
