16
CC(=O)C(C)C
C       2.05973867      0.31380283     -0.47114211
C       0.96743869     -0.44169707      0.24342568
O       1.24090935     -1.27826708      1.10424629
C      -0.47039454     -0.09188434     -0.12920113
C      -0.88912631      1.19709071      0.56781099
C      -1.42030128     -1.23356551      0.22389710
H       1.92293135      0.22508411     -1.55173857
H       2.04281925      1.36419787     -0.17283087
H       3.03200608     -0.11342516     -0.20950887
H      -0.50645076      0.05061526     -1.21589331
H      -0.24971815      2.03389923      0.26830236
H      -1.92207135      1.45965010      0.31667580
H      -0.81524252      1.10130443      1.65681472
H      -1.10387732     -2.16559722     -0.25697076
H      -1.44998710     -1.41191686      1.30456471
H      -2.43867406     -1.00929129     -0.11029974
